_cell_length_a                         41.422679216
_cell_length_b                         41.4081602784
_cell_length_c                         29.3046761947
_cell_angle_alpha 90.00000916807598
_cell_angle_beta 90.00023260660215
_cell_angle_gamma 89.99823497530879
_symmetry_space_group_name_H-M         'P 1'
_symmetry_Int_Tables_number            1
loop_
_symmetry_equiv_pos_as_xyz
   'x, y, z'

loop_
_atom_site_label
_atom_site_fract_x 
_atom_site_fract_y
_atom_site_fract_z
_atom_site_charge
O	0.187691428796	0.988807254067	0.0589111456878	-0.57949
O	0.166411470611	0.0237735311861	0.111627048872	-0.58786
O	0.436918159797	0.241195527192	0.227478681134	-0.58313
O	0.418109213252	0.273669394432	0.280606189622	-0.60833
O	0.0569840613963	0.504136759774	0.227919431601	-0.57919
O	0.0738201366291	0.473390092487	0.283965385143	-0.58673
O	0.306612300365	0.255036993464	0.0611259774389	-0.58313
O	0.322145589114	0.218337894154	0.11235118549	-0.60827
O	0.122302833578	0.0627354751056	0.138199651006	-0.5786
O	0.089853591437	0.044931660381	0.194996176322	-0.58742
O	0.375878708104	0.312683572774	0.311165298823	-0.58316
O	0.34452501198	0.297336436128	0.028380242119	-0.60786
O	0.116335650832	0.431995795914	0.315337567705	-0.57819
O	0.151308472492	0.448464565679	0.0306592128078	-0.58814
O	0.366337721394	0.179075390849	0.142784261965	-0.5829
O	0.399015611441	0.19708957162	0.198003433715	-0.6082
O	0.0522334173768	0.0144110166865	0.140407595024	-0.5841
O	0.0825666803389	0.0381007477726	0.0864070137952	-0.60808
O	0.305448522703	0.263478764091	0.307383708938	-0.5792
O	0.334463621328	0.289255701832	0.254606896075	-0.5859
O	0.190422607453	0.47808006453	0.311083184768	-0.58433
O	0.158222459062	0.452865960513	0.258573237595	-0.60826
O	0.436097140532	0.229094229542	0.144651239063	-0.58004
O	0.408522184549	0.204415377844	0.0898349065506	-0.58639
O	0.133954619697	0.0599136484897	0.054502751473	-0.584
O	0.161528226024	0.0314813297472	0.33804657913	-0.60721
O	0.388209321389	0.311620626923	0.225201343006	-0.57959
O	0.413102834379	0.281341470016	0.170981043777	-0.58625
O	0.10277912958	0.431868907989	0.228320570744	-0.5843
O	0.0809210037278	0.462651867824	0.173387050942	-0.60803
O	0.35566615676	0.182063316988	0.0570048972334	-0.5791
O	0.327407260877	0.210684088857	0.336850067853	-0.58615
O	0.307079721302	0.504067589863	0.260569376808	-0.57869
O	0.325463613398	0.467882975118	0.211042178211	-0.58724
O	0.0566524601231	0.253934556525	0.089653018302	-0.5802
O	0.075538815845	0.219846396601	0.0382267722947	-0.58631
O	0.439799972276	0.993511043891	0.0953775951983	-0.578
O	0.417542382313	0.023414717764	0.0397073670953	-0.58678
O	0.185658754917	0.24011563127	0.261194729391	-0.58008
O	0.167976668296	0.275792610053	0.210617784116	-0.58635
O	0.37139531482	0.430533100179	0.181455857212	-0.57985
O	0.403135816208	0.448604820525	0.125567605565	-0.58599
O	0.116788212939	0.181975429609	0.00913301577135	-0.57962
O	0.145696537605	0.198287059437	0.288062068158	-0.58712
O	0.373369998893	0.0628033047174	0.00756840524854	-0.58046
O	0.340084432698	0.0472015435239	0.288149767354	-0.58652
O	0.127868926777	0.313341766381	0.178046644652	-0.57992
O	0.0935583571303	0.294499966551	0.124139199244	-0.58697
O	0.438105121773	0.482172526523	0.182106036441	-0.58396
O	0.409626287756	0.457333477093	0.236104794644	-0.6075
O	0.189049668164	0.231601141789	0.0130882737638	-0.58308
O	0.158636323171	0.203490444304	0.064133892586	-0.60812
O	0.303624163707	0.0129984027505	0.00987119710957	-0.58353
O	0.331455420366	0.0391180852566	0.0632519836078	-0.6074
O	0.0558342455492	0.263726963197	0.176230935278	-0.58239
O	0.0847363648569	0.291346018394	0.229836574021	-0.6079
O	0.35927687492	0.432406126039	0.267052151641	-0.58254
O	0.332561623221	0.460053387748	0.988413720023	-0.60853
O	0.107341736126	0.182377460716	0.0931868867629	-0.5832
O	0.0800272786473	0.210261786075	0.144790173706	-0.60822
O	0.384724361011	0.061289499278	0.0930698699364	-0.58326
O	0.40709135339	0.0342869883361	0.149890020058	-0.60922
O	0.135226605419	0.313728514447	0.266120611591	-0.5844
O	0.168523545694	0.28250802858	0.979524142642	-0.6083
O	0.128074572531	0.998208866188	0.0576237397945	-0.99602
O	0.375504740748	0.25005041881	0.226712123473	-0.99502
O	0.117515822504	0.49350667509	0.227411362352	-0.99548
O	0.367181205577	0.24446818067	0.0576994431595	-0.99508
O	0.112949836785	0.00247707543466	0.141414717834	-0.99661
O	0.365926629533	0.253764865965	0.308897504046	-0.99441
O	0.126721749625	0.988902847972	0.309795851203	-0.99574
O	0.375064587795	0.238976418596	0.141135992132	-0.99415
O	0.367687083059	0.494043694457	0.264916769251	-0.99502
O	0.118055019	0.242603179418	0.0937877594013	-0.99396
O	0.378251800921	0.999170933467	0.0931620100019	-0.9962
O	0.123637703638	0.251021788842	0.262093076868	-0.99476
O	0.377012701786	0.490741989006	0.181656715771	-0.99282
O	0.128797795626	0.241419632012	0.0116929028261	-0.99472
O	0.364967907701	0.00186297637675	0.0107139424224	-0.99441
O	0.117768983573	0.253098715973	0.179078516299	-0.996
C	0.227233286675	0.0340301337468	0.144303189077	-0.07068
C	0.222866249244	0.0199811587829	0.100813215191	-0.056
C	0.189317516961	0.0118996266338	0.0875311721163	0.63837
C	0.481664272741	0.28636971774	0.315258566214	-0.06913
C	0.474809850285	0.274860906861	0.269165946197	-0.05694
C	0.440932795946	0.265296350449	0.255490869694	0.63258
C	0.0114222026754	0.458069847622	0.311787577966	-0.07067
C	0.0173089817326	0.470029424245	0.267995792495	-0.05581
C	0.0514260049375	0.480679222577	0.255601556147	0.63725
C	0.26017288735	0.214266478707	0.147746593822	-0.06989
C	0.266503388157	0.228375073934	0.104823810917	-0.05548
C	0.299711839548	0.231787108294	0.0894265543693	0.63323
C	0.0751142969424	0.105140466762	0.221111994576	-0.07182
C	0.094218561655	0.0999942690989	0.180376624452	-0.05398
C	0.0989572538777	0.067197237059	0.166080513318	0.63653
C	0.345471423686	0.358077115353	0.065761934404	-0.06982
C	0.35575483891	0.353099677928	0.021618598968	-0.0556
C	0.352600443221	0.319011897183	0.33848601	0.63208
C	0.158495856806	0.384331862214	0.0666477823442	-0.07153
C	0.146235245737	0.391199969376	0.0226230113224	-0.05618
C	0.140706438971	0.426523376016	0.341097537911	0.63665
C	0.439608401786	0.145280902792	0.190648816674	-0.0694
C	0.410750982639	0.146253260003	0.165532979568	-0.05605
C	0.39071966536	0.175357667393	0.168722195351	0.63295
C	0.037056331961	0.0353429168744	0.0197870099732	-0.07185
C	0.0312689494536	0.0224043529972	0.0632269179353	-0.05438
C	0.0584159144311	0.0209474699444	0.0975109802928	0.63272
C	0.286690198069	0.289362192557	0.191502336917	-0.07009
C	0.281982016855	0.276719153093	0.23490498299	-0.0562
C	0.31018818053	0.272174496665	0.265560027406	0.6368
C	0.204915651303	0.456729012934	0.19095272416	-0.0709
C	0.210416051924	0.468204244105	0.234612229309	-0.05541
C	0.184660299096	0.468271993671	0.26932585609	0.63417
C	0.452372961015	0.216167212779	0.0231765956058	-0.07134
C	0.457804172375	0.225967067739	0.0695318818208	-0.05488
C	0.431129313099	0.222290933716	0.102423146232	0.63665
C	0.156330078847	0.0789557810559	0.27171170842	-0.07136
C	0.144424951983	0.0838946704653	0.316897339783	-0.05554
C	0.143199059693	0.0538165871695	0.0122573859461	0.63343
C	0.415311359282	0.330961403602	0.108295896554	-0.07198
C	0.39813584799	0.334401151251	0.149056717443	-0.05589
C	0.396380236871	0.306960822993	0.18159743443	0.63773
C	0.0872877872685	0.415757460627	0.105497634133	-0.07018
C	0.0974826324425	0.410130374886	0.151763543781	-0.05684
C	0.0971923061798	0.437667789094	0.18572499507	0.63384
C	0.343751219432	0.166578644096	0.266640967747	-0.07172
C	0.348686569687	0.159413456598	0.313990629602	-0.05426
C	0.346069025216	0.18898984892	0.0151333710997	0.63614
C	0.262864498569	0.459784691506	0.174019795059	-0.07147
C	0.269039578326	0.473131108247	0.217611636277	-0.05538
C	0.302520106642	0.480773817153	0.233735405882	0.6371
C	0.0160324361841	0.203502658668	0.00930937712108	-0.07109
C	0.0194482070246	0.219410674597	0.0507598196462	-0.05594
C	0.0526073386418	0.228915231141	0.0642178730913	0.63853
C	0.480048026499	0.0352671306414	0.00825846549946	-0.07096
C	0.474056592815	0.022325400834	0.0521981204192	-0.05585
C	0.440357005119	0.0146247634895	0.0651767807965	0.63617
C	0.229116295024	0.288301790789	0.176819955828	-0.07079
C	0.224296988186	0.270760197932	0.219792056745	-0.05674
C	0.190350826711	0.263654313341	0.234765760273	0.63785
C	0.42174708415	0.388853077933	0.0999591186284	-0.0714
C	0.403128892565	0.393769672071	0.1404496969	-0.05345
C	0.394532252699	0.426369869129	0.153263175123	0.63631
C	0.154000397791	0.136329083397	0.256591324182	-0.07145
C	0.142532268019	0.142261595707	0.300588948761	-0.05614
C	0.140570904666	0.17532551429	0.980777467457	0.63866
C	0.345638662515	0.108935975804	0.250436354233	-0.07283
C	0.348170310595	0.102773415271	0.299244727885	-0.05483
C	0.351248687953	0.0668082579827	0.980520075204	0.63793
C	0.0855266998384	0.358139542432	0.0910285835839	-0.07056
C	0.097056566305	0.352068845004	0.135347546093	-0.05731
C	0.105037999924	0.317785186373	0.1493336326	0.63835
C	0.455808777845	0.469869054531	0.302345693564	-0.07147
C	0.461550898683	0.474037017361	0.255902009925	-0.05522
C	0.434316147949	0.473045306449	0.223062427552	0.63327
C	0.20508651763	0.209346826815	0.132655942951	-0.07024
C	0.210305666899	0.221321822912	0.08738263856	-0.05471
C	0.184148003133	0.219832495485	0.0529569256073	0.63221
C	0.28490722071	0.0342494426406	0.129330358663	-0.07122
C	0.280465938621	0.0237418244718	0.0832045867017	-0.05511
C	0.307765770825	0.0229071754677	0.051795038025	0.63287
C	0.0368359440921	0.282581261222	0.29561543863	-0.0707
C	0.03274814909	0.271943290098	0.25107450173	-0.05425
C	0.0605132811047	0.273045252618	0.218792865766	0.63155
C	0.34994101792	0.414874361131	0.0513924810797	-0.06998
C	0.35659658163	0.409997853134	0.00530177106956	-0.0554
C	0.349342653529	0.436847498596	0.308644652647	0.63248
C	0.0805123897366	0.162248243659	0.210118947973	-0.07119
C	0.0964257211043	0.158783374837	0.167637973135	-0.05458
C	0.0971895400852	0.186367390056	0.135275433608	0.63262
C	0.449870748734	0.0899108345805	0.163108223058	-0.07036
C	0.419706356208	0.089385108333	0.141159198137	-0.05734
C	0.404847060815	0.0592055528799	0.124700231013	0.63404
C	0.158719161934	0.327009547874	0.0481865805406	-0.0706
C	0.148888200449	0.332766679382	0.00269004573889	-0.05547
C	0.146585976751	0.309247747733	0.306878895899	0.63405
C	0.248597029055	0.0169588584055	0.0704313539831	-0.08608
C	0.258821426557	0.0403894899886	0.157659468056	-0.09011
C	0.00113651824136	0.264911682609	0.236132097675	-0.08377
C	0.0106154797447	0.295322086306	0.320429909227	-0.08979
C	0.991550718691	0.474135788994	0.237334228722	-0.08632
C	0.979557484376	0.453037832819	0.325247747893	-0.09007
C	0.240493477523	0.230963617018	0.0739066238077	-0.08524
C	0.230192349133	0.20611807969	0.161556087799	-0.09005
C	0.102966046727	0.126971283202	0.152553428117	-0.08669
C	0.0698970498233	0.136248248809	0.237524155535	-0.09006
C	0.140590837477	0.367943440668	0.32795265234	-0.0856
C	0.162674189633	0.35349854036	0.0788939799362	-0.08952
C	0.999525963424	0.0155157956483	0.0775030796302	-0.08494
C	0.0125430675502	0.0422260478525	0.991434704315	-0.0892
C	0.250695569845	0.266133611083	0.248617524352	-0.08543
C	0.260209007748	0.296682382325	0.163442217442	-0.09002
C	0.242383870688	0.477481149302	0.246866871119	-0.08525
C	0.230387161195	0.455729672008	0.158968536081	-0.08926
C	0.992488825475	0.227680163398	0.0776286399683	-0.08619
C	0.986596650227	0.193989173488	0.994230339883	-0.09036
C	0.13853353501	0.114032129765	0.992704975747	-0.08529
C	0.165454280786	0.105796090715	0.245709804556	-0.08866
C	0.103612286304	0.377928725065	0.165525054399	-0.0836
C	0.0797719530317	0.389840951525	0.0772712453998	-0.08948
C	0.389453372756	0.36551433535	0.163415208066	-0.08689
C	0.428970715542	0.357573598066	0.0846932786855	-0.09045
C	0.35128344031	0.128815723472	0.994228848302	-0.08703
C	0.339007562236	0.140153373178	0.236510594062	-0.09007
C	0.361036164638	0.379009062109	0.332242836847	-0.08495
C	0.339114333783	0.389355626839	0.0801974744764	-0.09004
C	0.400197290533	0.118693418137	0.142634926756	-0.08345
C	0.457617320306	0.116731928423	0.191612156557	-0.08977
Al	0.157413995892	0.988042481273	0.016492575819	1.63644
Al	0.406347834756	0.239441841951	0.185014226672	1.63392
Al	0.0828142149548	0.00272756432185	0.182552265449	1.63512
Al	0.33675603782	0.254304991645	0.0172927564052	1.63399
Al	0.123593306799	0.030570408961	0.0973425787601	1.63546
Al	0.375277685847	0.282055235859	0.268034256436	1.63341
Al	0.116475006203	0.462952229964	0.271006787008	1.63441
Al	0.365840414833	0.211812873746	0.100171510556	1.63393
Al	0.334763916368	0.00220658791548	0.966996965919	1.63364
Al	0.0876046767752	0.253552419289	0.135130704016	1.63428
Al	0.40733448946	0.992242874571	0.137010094118	1.63382
Al	0.160526170337	0.240838002954	0.969754748954	1.63438
Al	0.368410031635	0.462656999862	0.22422397816	1.63309
Al	0.117739477238	0.212037544615	0.051945404986	1.63246
Al	0.374537522868	0.0315912705598	0.052040529547	1.63427
Al	0.126009664616	0.283267492332	0.221627452245	1.63362
H	0.344552134432	0.338405291554	0.0875564025802	0.11101
H	0.445354398837	0.164316073045	0.213034831797	0.10995
H	0.422257078669	0.308374865718	0.0943097902341	0.11132
H	0.34063072154	0.191862414856	0.25606720799	0.11107
H	0.281774820709	0.454362633019	0.15242613315	0.11176
H	0.037366262398	0.195231653187	0.991783072699	0.11101
H	0.4607213042	0.0403175555525	0.984899242101	0.11156
H	0.209315897373	0.294275107024	0.154333556516	0.11054
H	0.159284650999	0.155908622572	0.232552958166	0.11151
H	0.0829441988482	0.339395135957	0.0650902848951	0.11152
H	0.431853574382	0.468518498432	0.315617106869	0.11079
H	0.180718535252	0.20236384211	0.144049200135	0.1106
H	0.310007108417	0.0322780156602	0.143094458153	0.11035
H	0.060361538896	0.281760003593	0.311841184435	0.11102
H	0.071274977782	0.184324148821	0.220405674038	0.11068
H	0.166096769823	0.303433291166	0.0589180930829	0.11006
H	0.210181577608	0.030911950832	0.170718806829	0.11095
H	0.462181797591	0.28443929344	0.340041043767	0.10983
H	0.0304441839054	0.447684405109	0.331439354109	0.11117
H	0.278323637815	0.210558988255	0.172563805522	0.11027
H	0.0642640057202	0.0859202909532	0.23951027953	0.11098
H	0.163965853882	0.404095613803	0.0894921109945	0.11099
H	0.0617083829932	0.0412801759769	0.00956412654596	0.1113
H	0.30969056869	0.290187878792	0.177937848066	0.1109
H	0.179504645057	0.451842768701	0.179679862898	0.11023
H	0.42850548502	0.20849747958	0.0120415126345	0.11134
H	0.162777440508	0.0547118048787	0.259802258377	0.11091
H	0.0811069972217	0.4406429931	0.0942290870756	0.11067
H	0.433897910852	0.408296184684	0.0839165320328	0.11061
H	0.343081282048	0.0903137851785	0.225479268498	0.11157
H	0.348377262712	0.439909091423	0.0642178463818	0.11079
H	0.466761586439	0.0702675708464	0.161730603661	0.11094
H	0.109902791466	0.488378436908	0.0601625301848	0.42035
H	0.355645248883	0.237665816405	0.222168259009	0.4184
H	0.135099826078	0.00115726656222	0.222003299018	0.41889
H	0.386971903982	0.258220472406	0.057437560276	0.41966
H	0.12952872096	0.484273942643	0.142722875569	0.41963
H	0.379204213003	0.234106838271	0.311164422446	0.41881
H	0.110398630306	0.00751213809649	0.310247492292	0.41875
H	0.362903331747	0.259279985953	0.142005632982	0.41824
H	0.382371187465	0.00672794827793	0.260579692133	0.41851
H	0.135833213093	0.257886730599	0.0878210944357	0.41879
H	0.359786157566	0.493550337831	0.106238598804	0.41928
H	0.103194422551	0.238374386224	0.264798077012	0.41835
H	0.357159860045	0.00578657083426	0.172312467815	0.41836
H	0.11258408681	0.259420070311	0.0148603375428	0.41854
H	0.385830781722	0.484872249217	0.0127352752159	0.41949
H	0.132910776362	0.235299413479	0.177454461978	0.4202
H	0.242929274207	0.0108951210634	0.0367750771845	0.12932
H	0.26339834398	0.0456159276609	0.194288973463	0.10636
H	0.997472050347	0.251485845485	0.204602409514	0.12872
H	0.0108876479573	0.303833549645	0.0241210724266	0.10669
H	0.995940257656	0.485979145728	0.205395480169	0.12985
H	0.976115107915	0.438030121547	0.0242501691039	0.10632
H	0.244651481545	0.243298425755	0.0416096217428	0.1294
H	0.224353644451	0.199352913333	0.196184898677	0.10652
H	0.115058127566	0.122932807078	0.121525387088	0.12947
H	0.0581493589188	0.140586063219	0.268683509827	0.10665
H	0.128124103131	0.37232990006	0.296571637227	0.12893
H	0.172075755321	0.349398561716	0.114752639977	0.10631
H	0.995575697584	0.0127009885025	0.112331460409	0.12885
H	0.015621870413	0.0507623305279	0.293437499667	0.10641
H	0.247563051403	0.25457447737	0.284703053636	0.12929
H	0.265512361769	0.306639049015	0.13162122186	0.10613
H	0.246513647589	0.486300304381	0.280912174311	0.1288
H	0.224795331565	0.442828703149	0.127723691782	0.10624
H	0.996402367022	0.243167556063	0.107608085189	0.12918
H	0.971255161858	0.194054650022	0.294532815543	0.10607
H	0.126655528646	0.116377328719	0.026765078483	0.12943
H	0.18243426699	0.102781529007	0.216759635682	0.10639
H	0.116936593557	0.373816828648	0.196301869236	0.12877
H	0.0669836346262	0.394658293135	0.0441667249011	0.10626
H	0.372534756003	0.368596009045	0.189970316298	0.12919
H	0.444756420678	0.352971842918	0.0540749456626	0.10608
H	0.361777547997	0.124713933804	0.0248033136464	0.12904
H	0.332880468511	0.144582096643	0.201176030091	0.10616
H	0.372787108402	0.375089385542	0.301037768181	0.12919
H	0.333701405916	0.394848597172	0.115363704764	0.10685
H	0.378083203344	0.11918828811	0.124214989575	0.12876
H	0.482793935241	0.117246971602	0.206624214068	0.1075
O	0.189356130003	0.992185114871	0.394204147271	-0.57949
O	0.16698809127	0.0217504931883	0.449791017558	-0.58786
O	0.438522516805	0.242381855938	0.558873810492	-0.58313
O	0.420272549565	0.275714084902	0.61298781796	-0.60833
O	0.0570199383804	0.503186749107	0.563083867904	-0.57919
O	0.0740528805374	0.468331270151	0.616488040457	-0.58673
O	0.302268718546	0.253183164157	0.3917393758	-0.58313
O	0.322058752851	0.218468691775	0.445148940745	-0.60827
O	0.126710102172	0.062074889196	0.478903946959	-0.5786
O	0.0916107312987	0.0444560199393	0.531663830025	-0.58742
O	0.379350035588	0.313601637035	0.644347117042	-0.58316
O	0.340793938298	0.295546813524	0.362037118896	-0.60786
O	0.117042115674	0.429038813059	0.645229797697	-0.57819
O	0.15409753251	0.449011161225	0.364136337783	-0.58814
O	0.36734327141	0.180828672308	0.474212279054	-0.5829
O	0.398620200698	0.199637642735	0.528953790254	-0.6082
O	0.0531116491468	0.01625720882	0.475821739194	-0.5841
O	0.0844567552648	0.041251741328	0.424133332039	-0.60808
O	0.306342880933	0.266663038491	0.639421905332	-0.5792
O	0.33841978841	0.291580218408	0.587789914943	-0.5859
O	0.188198016767	0.476537246221	0.647044231194	-0.58433
O	0.158611773732	0.45098063323	0.592509285982	-0.60826
O	0.43660251569	0.229347530323	0.473279372661	-0.58004
O	0.407730713613	0.205472757121	0.417734344771	-0.58639
O	0.138683033989	0.0620534548694	0.392681593252	-0.584
O	0.159914498543	0.030980215676	0.671053445879	-0.60721
O	0.390868674665	0.313810703199	0.556771887507	-0.57959
O	0.414051553303	0.283315771018	0.501165431192	-0.58625
O	0.104203146072	0.428115871299	0.5589199047	-0.5843
O	0.0760747651013	0.459434065427	0.510232252248	-0.60803
O	0.353292400965	0.181572581708	0.389806069233	-0.5791
O	0.327391216044	0.214035172996	0.67040847752	-0.58615
O	0.307234579831	0.501450755108	0.601150318161	-0.57869
O	0.326704214232	0.468905064656	0.5473827949	-0.58724
O	0.053581342417	0.253435801949	0.42857236165	-0.5802
O	0.069064636349	0.220367671913	0.372344848378	-0.58631
O	0.437934969504	0.996849823456	0.432876133473	-0.578
O	0.415996426298	0.0235562189258	0.372261739067	-0.58678
O	0.190929026511	0.238950455536	0.590157055163	-0.58008
O	0.172001949545	0.272895273872	0.537614684398	-0.58635
O	0.369607148752	0.43418573321	0.514664565247	-0.57985
O	0.404259113321	0.452478623192	0.463472276782	-0.58599
O	0.11080820007	0.18092965968	0.341023490737	-0.57962
O	0.150113335165	0.195735067288	0.620695929919	-0.58712
O	0.377519374558	0.0623103624119	0.339720079403	-0.58046
O	0.339778906793	0.0484905389417	0.621968989435	-0.58652
O	0.127615602323	0.311579985533	0.507552270905	-0.57992
O	0.0930941867822	0.295595696695	0.454773637319	-0.58697
O	0.440712145588	0.487968232124	0.51889483166	-0.58396
O	0.412910314807	0.459252944168	0.568768708552	-0.6075
O	0.183126291613	0.228622930783	0.345293784347	-0.58308
O	0.152685724549	0.201946719285	0.397880972929	-0.60812
O	0.303501694856	0.0146288996438	0.34478128714	-0.58353
O	0.334092799363	0.0446946974862	0.393023416888	-0.6074
O	0.0555870633224	0.264055736008	0.513825319804	-0.58239
O	0.0876132853156	0.288999225251	0.565804505443	-0.6079
O	0.360609603419	0.43366711493	0.602879140799	-0.58254
O	0.33211881725	0.461025064052	0.317672456442	-0.60853
O	0.0993455093167	0.179870582663	0.430960991785	-0.5832
O	0.0752311976519	0.211343518757	0.480834293849	-0.60822
O	0.385753650923	0.0650623442362	0.424755157284	-0.58326
O	0.405090922797	0.0384595431138	0.484668352928	-0.60922
O	0.140963696118	0.310109025286	0.594600458535	-0.5844
O	0.162229539755	0.283173878846	0.317272971382	-0.6083
O	0.124207416643	0.000140848957156	0.394243389925	-0.99602
O	0.377859580324	0.252462946604	0.558107276742	-0.99502
O	0.116520142805	0.491169460061	0.560544386438	-0.99548
O	0.363818438144	0.244068950109	0.389067501521	-0.99508
O	0.112741707128	0.00102884433436	0.478110811652	-0.99661
O	0.36749115733	0.254359896091	0.642963189644	-0.99441
O	0.12386671219	0.989490029514	0.643488966889	-0.99574
O	0.375243183298	0.242664030609	0.473859368863	-0.99415
O	0.368220073183	0.494509432723	0.601116942391	-0.99502
O	0.112719146015	0.241485212865	0.428459100918	-0.99396
O	0.372946793825	0.00299539988521	0.428665582162	-0.9962
O	0.129672242395	0.249551205254	0.591738197824	-0.99476
O	0.37739889976	0.495426776818	0.517817777962	-0.99282
O	0.123201204518	0.241221659446	0.345620835427	-0.99472
O	0.363746070819	0.00363930230733	0.342481350471	-0.99441
O	0.116674289833	0.250852369566	0.511196439806	-0.996
C	0.230763445226	0.0330414735782	0.481775696475	-0.07068
C	0.224264825329	0.0231285297844	0.437701226302	-0.056
C	0.189870047285	0.013683576213	0.423717176867	0.63837
C	0.481007554433	0.29324928339	0.640003298661	-0.06913
C	0.476039032149	0.275775642428	0.59966462289	-0.05694
C	0.442723327856	0.266432979893	0.586497704007	0.63258
C	0.0128641999106	0.455589323981	0.64522840486	-0.07067
C	0.0187076604401	0.472068201885	0.603927296627	-0.05581
C	0.0518262860029	0.479815577291	0.590216783221	0.63725
C	0.259198531052	0.207514045497	0.478109054142	-0.06989
C	0.265279117307	0.220886654053	0.435736346504	-0.05548
C	0.298098874385	0.22832630879	0.419484466299	0.63323
C	0.0846522517946	0.108069412535	0.567505446919	-0.07182
C	0.0959418153352	0.100932912748	0.522390627675	-0.05398
C	0.103638180612	0.067594415033	0.507524324757	0.63653
C	0.335664101346	0.357224610339	0.40180084834	-0.06982
C	0.350528678654	0.351483518033	0.358621652357	-0.0556
C	0.357941756404	0.319257451283	0.674438589704	0.63208
C	0.157619391439	0.388852679077	0.401727740945	-0.07153
C	0.14714081881	0.39413019492	0.356975557481	-0.05618
C	0.140021842172	0.423140687289	0.673039723091	0.63665
C	0.441833144629	0.148035707398	0.52018364294	-0.0694
C	0.410110485912	0.147761235315	0.502572436857	-0.05605
C	0.390821718615	0.177111043227	0.502712642863	0.63295
C	0.0377178615939	0.0317678590398	0.355023038427	-0.07185
C	0.0317247336469	0.0217639893867	0.402204025579	-0.05438
C	0.0593463880952	0.0248608723982	0.434642988639	0.63272
C	0.290518690939	0.290410751502	0.522517599794	-0.07009
C	0.286042960359	0.27551559802	0.565556297107	-0.0562
C	0.312027501675	0.275690205262	0.59853361983	0.6368
C	0.207125443701	0.453628181356	0.528514944985	-0.0709
C	0.213231795368	0.463772545165	0.575052534557	-0.05541
C	0.185191397911	0.464598035296	0.606020747219	0.63417
C	0.45345253259	0.212887945837	0.35280004576	-0.07134
C	0.458496954465	0.220683595375	0.398833913436	-0.05488
C	0.431451117329	0.222651395657	0.430681265711	0.63665
C	0.15560297842	0.076358114782	0.606661161033	-0.07136
C	0.142822358221	0.0823721929026	0.651469499882	-0.05554
C	0.144910759135	0.0567905277445	0.349172707851	0.63343
C	0.410979200667	0.333894226012	0.43832919429	-0.07198
C	0.400277822397	0.338649293964	0.483237676028	-0.05589
C	0.398148657571	0.309134392378	0.514105553789	0.63773
C	0.080828278295	0.413565026499	0.438894546208	-0.07018
C	0.0912922193055	0.408330152848	0.483958266193	-0.05684
C	0.0931119490221	0.434140418416	0.51773148295	0.63384
C	0.344271298105	0.169014824855	0.602398057867	-0.07172
C	0.349118567382	0.162978642237	0.648229928134	-0.05426
C	0.345094226369	0.186113198142	0.347324093702	0.63614
C	0.265552575255	0.456723784393	0.514451504803	-0.07147
C	0.271039192451	0.469797337405	0.56017469476	-0.05538
C	0.303735713118	0.477976479856	0.574392416628	0.6371
C	0.00749856393937	0.213986819368	0.340710488944	-0.07109
C	0.0145260228098	0.225817979215	0.384617570869	-0.05594
C	0.047173503776	0.229957429618	0.400093958739	0.63853
C	0.481035962965	0.03100497508	0.338982125841	-0.07096
C	0.474381325629	0.0255218636893	0.384648797303	-0.05585
C	0.439253392854	0.0173620343865	0.399554654601	0.63617
C	0.233558926467	0.284828948987	0.50627904637	-0.07079
C	0.228957176245	0.268974944265	0.547315532581	-0.05674
C	0.195528453563	0.261701460145	0.561827696593	0.63785
C	0.414967267286	0.390995199708	0.429164376379	-0.0714
C	0.399819368718	0.396108087683	0.471725885601	-0.05345
C	0.393085348888	0.429682069516	0.486158013076	0.63631
C	0.16439465207	0.133647820426	0.597401208275	-0.07145
C	0.146738653627	0.139846027147	0.637461604171	-0.05614
C	0.134734485312	0.175666736587	0.313457457243	0.63866
C	0.346995087062	0.110343807291	0.585357995634	-0.07283
C	0.349439262387	0.10482208048	0.632440327653	-0.05483
C	0.354267592638	0.0688389340389	0.313071339148	0.63793
C	0.0815798980969	0.356595051033	0.423514773141	-0.07056
C	0.0960979245628	0.350677634355	0.466582392168	-0.05731
C	0.103783475262	0.317059849895	0.480066771885	0.63835
C	0.457900494602	0.471088084644	0.638481446723	-0.07147
C	0.462301719865	0.479553931023	0.59101675353	-0.05522
C	0.434763954086	0.479629827477	0.559570976598	0.63327
C	0.201365232172	0.206952299823	0.464575303647	-0.07024
C	0.205992289236	0.218040809097	0.419674040798	-0.05471
C	0.178475269183	0.218583628995	0.386667650648	0.63221
C	0.288338058611	0.0380552309752	0.464023541322	-0.07122
C	0.282593400418	0.0307759007222	0.418249194273	-0.05511
C	0.308574514562	0.0286455027338	0.384464982235	0.63287
C	0.0385631720688	0.282192499209	0.635226114245	-0.0707
C	0.0335655783066	0.27263536178	0.589114226324	-0.05425
C	0.0603289517498	0.274911225061	0.55468852866	0.63155
C	0.336417612065	0.414926246156	0.385284624182	-0.06998
C	0.349841288687	0.410050828685	0.343149599042	-0.0554
C	0.350948123458	0.438722081194	0.643577342904	0.63248
C	0.0811968134146	0.165164134547	0.551913685741	-0.07119
C	0.0906704930208	0.159298161614	0.504977203247	-0.05458
C	0.0901617733413	0.185769629233	0.471770488817	0.63262
C	0.451514965834	0.0939688527369	0.495312706625	-0.07036
C	0.419281198011	0.093195526507	0.477606096722	-0.05734
C	0.405102866514	0.0623169666512	0.458718119351	0.63404
C	0.157782933645	0.33144450738	0.388406168578	-0.0706
C	0.149080921724	0.33667215814	0.340380948225	-0.05547
C	0.149585594801	0.304219331426	0.636575971301	0.63405
C	0.249560974991	0.0215447015851	0.405421626958	-0.08608
C	0.2628196644	0.0397566260202	0.494541309819	-0.09011
C	1.00056225359	0.266546245081	0.575190587552	-0.08377
C	0.0126746582474	0.290557646132	0.661957044998	-0.08979
C	0.992499104342	0.478162881901	0.574912968396	-0.08632
C	0.980929739632	0.44513886087	0.657327394041	-0.09007
C	0.237874957877	0.227550015899	0.406682523087	-0.08524
C	0.227692310769	0.20310381198	0.493455932948	-0.09005
C	0.0981822559132	0.127217176901	0.491829549665	-0.08669
C	0.0775570480092	0.139720380518	0.581455805085	-0.09006
C	0.141010706448	0.362612472975	0.658891075686	-0.0856
C	0.164435731916	0.357889294794	0.415611326968	-0.08952
C	0.999746962258	0.017629465152	0.416737829061	-0.08494
C	0.0119286767164	0.0402811492402	0.327868845054	-0.0892
C	0.254776544748	0.264470522624	0.577487277946	-0.08543
C	0.265687917044	0.291097209447	0.492005019299	-0.09002
C	0.245106212461	0.472862374686	0.589381629914	-0.08525
C	0.234617510954	0.451307882146	0.499221627683	-0.08926
C	0.98855781685	0.232169995454	0.413441329769	-0.08619
C	0.975646928236	0.208409846559	0.326653059418	-0.09036
C	0.138583853029	0.115513890505	0.331574330184	-0.08529
C	0.166090011853	0.101521779821	0.579712038812	-0.08866
C	0.0996027328893	0.376160397154	0.497238167842	-0.0836
C	0.0747036136789	0.388179080561	0.410676713854	-0.08948
C	0.393608527073	0.369371951749	0.499292036875	-0.08689
C	0.417958282066	0.360668921168	0.410246122852	-0.09045
C	0.351960492419	0.127445496353	0.33000333626	-0.08703
C	0.34353403504	0.142803275059	0.571016814648	-0.09007
C	0.36113371124	0.379818743971	0.66181089678	-0.08495
C	0.332477544494	0.389391349257	0.417459527441	-0.09004
C	0.399159888044	0.119279462823	0.482968110762	-0.08345
C	0.463476318657	0.122033409131	0.515117303697	-0.08977
Al	0.157193096602	0.989830813492	0.351473183776	1.63644
Al	0.407093094357	0.24112091428	0.515758844337	1.63392
Al	0.0821117691017	0.00288807549581	0.519016930284	1.63512
Al	0.334781432942	0.253523583772	0.349658390763	1.63399
Al	0.125118366814	0.0310752007617	0.436174699348	1.63546
Al	0.378849727503	0.28340077366	0.600811643138	1.63341
Al	0.116359966973	0.45995529347	0.603834458548	1.63441
Al	0.36479145167	0.212834269299	0.431478014524	1.63393
Al	0.332980735669	0.00368719200054	0.301634311184	1.63364
Al	0.0843832855219	0.252751327987	0.470001887942	1.63428
Al	0.404249211217	0.995373195615	0.472034890039	1.63382
Al	0.153348003343	0.240596488768	0.303595167424	1.63438
Al	0.369300621863	0.464480873192	0.559340511788	1.63309
Al	0.112098115256	0.21120665026	0.385670207207	1.63246
Al	0.375173109968	0.0329781336823	0.383758594768	1.63427
Al	0.128950550423	0.280605442145	0.551646462197	1.63362
H	0.327847437284	0.337354922152	0.420792512815	0.11101
H	0.449991554641	0.170788170104	0.535883353207	0.10995
H	0.413805015628	0.310342031215	0.426092346107	0.11132
H	0.342481379071	0.193593590786	0.591853612504	0.11107
H	0.284927127776	0.450706355351	0.492498918502	0.11176
H	0.0256860876645	0.212207704851	0.316058194329	0.11101
H	0.462797180943	0.0291010063797	0.313789790097	0.11156
H	0.214743438088	0.291066285514	0.485200100932	0.11054
H	0.174704769593	0.152673906271	0.575432057919	0.11151
H	0.0736770783487	0.335314761585	0.401711386859	0.11152
H	0.432058745657	0.467233417769	0.65188842679	0.11079
H	0.178106058125	0.19495689973	0.473403379373	0.1106
H	0.313497579798	0.0444705261925	0.473773086081	0.11035
H	0.062058208728	0.284385367396	0.647623396788	0.11102
H	0.0713032625326	0.188911000984	0.562104352152	0.11068
H	0.16116312832	0.307324152368	0.399670947135	0.11006
H	0.212336687414	0.0341560885944	0.507922805447	0.11095
H	0.460885030045	0.300779828131	0.663071470416	0.10983
H	0.0320609412743	0.450520182985	0.670122215253	0.11117
H	0.28020916107	0.200089204181	0.49961173899	0.11027
H	0.0879053331039	0.0894429448031	0.593096668519	0.11098
H	0.162791003512	0.409293835375	0.423890711352	0.11099
H	0.0617616642743	0.0357581638108	0.343078148757	0.1113
H	0.313488164659	0.298146377074	0.512518148216	0.1109
H	0.182761621708	0.447604653945	0.518496517663	0.11023
H	0.429053650683	0.206728052486	0.34010090735	0.11134
H	0.161953683764	0.0533597167565	0.595129559708	0.11091
H	0.0741302977643	0.437357908157	0.426368741613	0.11067
H	0.423457289499	0.410881585734	0.410818176506	0.11061
H	0.340765559557	0.0926630711063	0.560979326257	0.11157
H	0.326168178777	0.437257966557	0.395281684408	0.11079
H	0.468852586524	0.0747831615004	0.488842732239	0.11094
H	0.110954547272	0.487550464899	0.387311948913	0.42035
H	0.357779198288	0.239875139301	0.556174446911	0.4184
H	0.128427903261	0.00627820568385	0.563819706715	0.41889
H	0.382247582784	0.258701232449	0.389029711938	0.41966
H	0.124650335133	0.477626254049	0.471797514744	0.41963
H	0.380664510497	0.235935870361	0.642278273494	0.41881
H	0.10590649838	0.00668011125879	0.654593400411	0.41875
H	0.357652635329	0.254764907368	0.484347539573	0.41824
H	0.37997781816	0.00955847251534	0.596059084921	0.41851
H	0.131293774437	0.256592131512	0.430775621828	0.41879
H	0.365700820274	0.486383400526	0.428237276412	0.41928
H	0.112130095359	0.234256182855	0.590230759431	0.41835
H	0.356214618771	0.0126039316436	0.508991584072	0.41836
H	0.107805968268	0.259029135629	0.343751647492	0.41854
H	0.386366587449	0.488680196081	0.344030398962	0.41949
H	0.132959864408	0.235258265565	0.503971544316	0.4202
H	0.243560926531	0.0174236676902	0.369978388032	0.12932
H	0.264889041307	0.0507791327178	0.528574255314	0.10636
H	0.99411801924	0.259455473825	0.540590608364	0.12872
H	0.0158206320476	0.30362616212	0.354652229048	0.10669
H	0.997423200574	0.490425501676	0.543204575419	0.12985
H	0.974704391978	0.446366567517	0.359971225216	0.10632
H	0.243145316164	0.233202444553	0.369404015924	0.1294
H	0.225259705602	0.194974140555	0.527682918243	0.10652
H	0.108418016737	0.122651541325	0.456636739208	0.12947
H	0.0712168325203	0.144509009267	0.616837769258	0.10665
H	0.129971989472	0.366716621823	0.625450834425	0.12893
H	0.175363565891	0.352874871415	0.449389906601	0.10631
H	0.994021761738	0.0103482770741	0.450975679118	0.12885
H	0.0168400828193	0.0572959991223	0.628004722157	0.10641
H	0.251092713561	0.254855830721	0.611564182255	0.12929
H	0.268411444196	0.305743418275	0.461772131706	0.10613
H	0.249857362317	0.479105297985	0.62416408492	0.1288
H	0.231408660266	0.439539376089	0.46697519439	0.10624
H	0.991508088824	0.237359721821	0.448765341376	0.12918
H	0.976021136714	0.186309419813	0.634547203369	0.10607
H	0.132527285019	0.11960521603	0.368065654744	0.12943
H	0.180115303642	0.0967091433889	0.550909284208	0.10639
H	0.103056451234	0.37169615854	0.533987538496	0.12877
H	0.0615496799512	0.392443898953	0.38131716839	0.10626
H	0.385155046461	0.371157717674	0.533175741312	0.12919
H	0.428362741178	0.356275381144	0.37797909661	0.10608
H	0.351934737619	0.1220198522	0.365655431999	0.12904
H	0.335150489287	0.147288718073	0.536961847791	0.10616
H	0.367013122523	0.376474888441	0.626145570723	0.12919
H	0.326134460246	0.395093014362	0.452774033117	0.10685
H	0.375273016523	0.11846290878	0.469122326151	0.12876
H	0.488523565981	0.127058662669	0.519373240076	0.1075
O	0.186871714912	0.989022588848	0.725646865497	-0.57949
O	0.167025636032	0.0212879463659	0.77931209063	-0.58786
O	0.439210040052	0.241199990523	0.888907394216	-0.58313
O	0.421848414275	0.272067536006	0.944479080567	-0.60833
O	0.0556389438075	0.501975579159	0.894076210702	-0.57919
O	0.0747489518486	0.470305003729	0.95000870629	-0.58673
O	0.304547104184	0.254424273869	0.724591025781	-0.58313
O	0.322246683877	0.222429297208	0.779450956559	-0.60827
O	0.127968756086	0.0589824283296	0.813767232736	-0.5786
O	0.091469621593	0.0434009035465	0.863004546768	-0.58742
O	0.383690398531	0.31253396549	0.978439165134	-0.58316
O	0.345428152552	0.295590828885	0.698377536691	-0.60786
O	0.116609542083	0.429575381532	0.981359613398	-0.57819
O	0.148896307898	0.445543591291	0.700322449302	-0.58814
O	0.363556853939	0.179425297181	0.808975102546	-0.5829
O	0.401258407578	0.19620898786	0.858812762903	-0.6082
O	0.0529609245121	0.0141331535343	0.809383127543	-0.5841
O	0.0843420765171	0.041007777675	0.759260136189	-0.60808
O	0.307702939421	0.264921789826	0.976017436654	-0.5792
O	0.33865286627	0.290605966341	0.925983326737	-0.5859
O	0.188609029891	0.481165447341	0.973743654265	-0.58433
O	0.158348198705	0.453052869823	0.925799588446	-0.60826
O	0.43621369307	0.22911108842	0.804671479217	-0.58004
O	0.406060531854	0.20129953748	0.752695557224	-0.58639
O	0.136968178371	0.0603137807032	0.725653032894	-0.584
O	0.160584863653	0.0292288693475	0.0042363152409	-0.60721
O	0.391383208668	0.309762265867	0.891327801681	-0.57959
O	0.414172251604	0.281233990005	0.834586311327	-0.58625
O	0.105448264174	0.432060080467	0.892992787141	-0.5843
O	0.0798366066382	0.462143010452	0.841200841099	-0.60803
O	0.350069676555	0.183460879762	0.723421721595	-0.5791
O	0.327630140506	0.212275837713	0.0071444313468	-0.58615
O	0.306822229455	0.501739177583	0.931444683508	-0.57869
O	0.324502303351	0.469694652457	0.876703062479	-0.58724
O	0.0572983817759	0.251373086788	0.760457083271	-0.5802
O	0.0741194022737	0.220411068508	0.705620107376	-0.58631
O	0.437745568418	0.989725861127	0.759121854238	-0.578
O	0.418137623546	0.0244969133145	0.702921226877	-0.58678
O	0.190747247192	0.240263304375	0.927530042401	-0.58008
O	0.17364316507	0.274851355136	0.875347955577	-0.58635
O	0.366013154967	0.430130588219	0.846169156817	-0.57985
O	0.401584041139	0.44822532361	0.795384779127	-0.58599
O	0.116677310736	0.179546245663	0.676533551857	-0.57962
O	0.15415162717	0.197701753589	0.958545291049	-0.58712
O	0.375855939363	0.0631879508971	0.674843891775	-0.58046
O	0.343427030255	0.0438879998909	0.95537842385	-0.58652
O	0.129534509365	0.313471404441	0.844212691854	-0.57992
O	0.0949145019166	0.295430516543	0.790582251855	-0.58697
O	0.439078636214	0.478353632381	0.849419367374	-0.58396
O	0.409302045866	0.451624272464	0.900755946081	-0.6075
O	0.188392017175	0.226747847806	0.677587889268	-0.58308
O	0.157446785138	0.202301740559	0.731141705261	-0.60812
O	0.30237264065	0.0154715774588	0.674983208074	-0.58353
O	0.332830628766	0.0406994437731	0.73035913794	-0.6074
O	0.0581417120046	0.261969333705	0.847179553566	-0.58239
O	0.0870211878914	0.290674468945	0.898838707741	-0.6079
O	0.353709912328	0.431508058541	0.930242070607	-0.58254
O	0.332752757622	0.462462182712	0.654801348356	-0.60853
O	0.104941835087	0.180418068877	0.762527743581	-0.5832
O	0.0795880400749	0.211232872668	0.814168268692	-0.60822
O	0.3875593721	0.0603394089397	0.757710511816	-0.58326
O	0.413530030812	0.0309787540292	0.811729243183	-0.60922
O	0.139855507198	0.310847042824	0.929851804677	-0.5844
O	0.168098640625	0.280209451552	0.646297657334	-0.6083
O	0.127404770634	0.999807434921	0.725989618686	-0.99602
O	0.377800223284	0.248457032419	0.891909269622	-0.99502
O	0.116974624521	0.492487329324	0.895679189493	-0.99548
O	0.365277834327	0.243150228569	0.725274106726	-0.99508
O	0.117586590491	1.00001982397	0.808749551227	-0.99661
O	0.369818304038	0.252653707573	0.974006137414	-0.99441
O	0.127540011548	0.9873531261	0.975080705753	-0.99574
O	0.376876288205	0.239992283121	0.806310748273	-0.99415
O	0.368374163526	0.491931812659	0.930956728196	-0.99502
O	0.117839812005	0.242101113264	0.761560946706	-0.99396
O	0.378303911529	0.999951407884	0.75877753571	-0.9962
O	0.130153291245	0.250945655764	0.926947239215	-0.99476
O	0.378516637227	0.490225909455	0.848778009882	-0.99282
O	0.128383811838	0.239915462611	0.675344227221	-0.99472
O	0.363026519402	0.00379525294773	0.676578532888	-0.99441
O	0.119523241306	0.252689885445	0.845447237639	-0.996
C	0.229877275456	0.0306765457435	0.812918184232	-0.07068
C	0.223531521518	0.0186590100994	0.769052002977	-0.056
C	0.189113109812	0.0121957187882	0.753257005106	0.63837
C	0.481237051336	0.291844488653	0.972597093516	-0.06913
C	0.47612928995	0.273458208558	0.928982907017	-0.05694
C	0.443525094294	0.26456166474	0.91663762815	0.63258
C	0.0141132784827	0.454500258031	0.97959654936	-0.07067
C	0.0189327544875	0.472949432108	0.938511240963	-0.05581
C	0.0519204908011	0.480488341886	0.924602354772	0.63725
C	0.260441849054	0.209973990915	0.811335788677	-0.06989
C	0.265147962381	0.22406059031	0.76567283919	-0.05548
C	0.299365672978	0.231631699012	0.753449930367	0.63323
C	0.0815960343292	0.104637008994	0.894158472062	-0.07182
C	0.0966558507919	0.0986694754942	0.849996198132	-0.05398
C	0.102866696991	0.0652881617531	0.837395467655	0.63653
C	0.337355325409	0.357625252373	0.731573856802	-0.06982
C	0.354535849424	0.35167686255	0.690300922117	-0.0556
C	0.361548865816	0.318881422681	0.00845739920596	0.63208
C	0.165729972092	0.382232988621	0.727563418096	-0.07153
C	0.147153174064	0.388829080479	0.687372149722	-0.05618
C	0.13924017167	0.424590456367	0.00826310174499	0.63665
C	0.404851736565	0.134639306192	0.894715802725	-0.0694
C	0.393940597684	0.140010771919	0.850350325135	-0.05605
C	0.38769897221	0.173218221455	0.834409780628	0.63295
C	0.037940088068	0.0383453967706	0.690627948036	-0.07185
C	0.032554172192	0.0240606714848	0.733001177656	-0.05438
C	0.0588357522083	0.02461785394	0.76899916927	0.63272
C	0.290639722993	0.289145900912	0.859302278835	-0.07009
C	0.286553155506	0.276785504602	0.90348351862	-0.0562
C	0.313468075078	0.274959637275	0.936262143053	0.6368
C	0.204952568442	0.451529926904	0.86022766677	-0.0709
C	0.210241704213	0.464376035454	0.903899539274	-0.05541
C	0.182792885456	0.47045553401	0.932961606556	0.63417
C	0.452258078511	0.210959348452	0.684510628077	-0.07134
C	0.456836222779	0.221000757398	0.728638938601	-0.05488
C	0.431687548401	0.217690830826	0.76382121772	0.63665
C	0.159741170731	0.0782743453981	0.933498423609	-0.07136
C	0.144682906169	0.0819933399922	0.976998801243	-0.05554
C	0.143212899162	0.056091209127	0.683270861141	0.63343
C	0.411637718749	0.331514188947	0.773988756384	-0.07198
C	0.401820727296	0.335144505603	0.819790813171	-0.05589
C	0.399749700181	0.306169760676	0.849643531443	0.63773
C	0.0878034407301	0.41601615605	0.773013842591	-0.07018
C	0.0996303804161	0.410998594563	0.817937213738	-0.05684
C	0.0987111016071	0.438676488281	0.852079717468	0.63384
C	0.329667386602	0.165526842049	0.937559179788	-0.07172
C	0.345449615357	0.161532419163	0.980194619677	-0.05426
C	0.344611511312	0.189572349885	0.682018265216	0.63614
C	0.262891630481	0.451774587018	0.849035377644	-0.07147
C	0.26813513037	0.467546637074	0.890618631994	-0.05538
C	0.302290176835	0.47883665328	0.902486065179	0.6371
C	0.00994899101668	0.206618770058	0.678677065744	-0.07109
C	0.0168354956057	0.222049333536	0.719678220592	-0.05594
C	0.0519697518898	0.228584818906	0.732726795515	0.63853
C	0.480595003701	0.0289716032618	0.671048979348	-0.07096
C	0.473426731674	0.0207222392001	0.717853621254	-0.05585
C	0.440215700638	0.0133502259449	0.730256352839	0.63617
C	0.233595047346	0.281579572286	0.841320625407	-0.07079
C	0.228365562385	0.268295953524	0.884685255858	-0.05674
C	0.196324473921	0.262877733805	0.899836474633	0.63785
C	0.412970392561	0.388262198186	0.762357479255	-0.0714
C	0.399986772272	0.392220676809	0.807810542641	-0.05345
C	0.389528998275	0.425554210987	0.819154866783	0.63631
C	0.15110220915	0.13483457188	0.918389027713	-0.07145
C	0.143138225164	0.140455944872	0.964314632323	-0.05614
C	0.1397202779	0.173593082274	0.648518774256	0.63866
C	0.331174368356	0.108186031469	0.919984009598	-0.07283
C	0.342619870262	0.101626791261	0.964053013873	-0.05483
C	0.352218519416	0.0701488813694	0.648637021569	0.63793
C	0.0865938529483	0.358462533021	0.758605682347	-0.07056
C	0.0975062245487	0.352180370441	0.803585370954	-0.05731
C	0.106570973779	0.317568598061	0.814785601941	0.63835
C	0.4566838555	0.452339944731	0.964399982958	-0.07147
C	0.459262727064	0.469807015339	0.923096843587	-0.05522
C	0.433630645698	0.468704536454	0.889709643477	0.63327
C	0.203603411236	0.205288913902	0.795758855162	-0.07024
C	0.208454029778	0.219153422286	0.752140514562	-0.05471
C	0.183040447714	0.21790174926	0.719044174034	0.63221
C	0.286635752812	0.0327055033104	0.797641202094	-0.07122
C	0.280243922003	0.0232038675295	0.751983957801	-0.05511
C	0.306928405776	0.0253002291365	0.717289569486	0.63287
C	0.0364542511303	0.28614807365	0.964687095903	-0.0707
C	0.033170910119	0.275345684559	0.917889240298	-0.05425
C	0.0611628543574	0.275561240963	0.88594504493	0.63155
C	0.342950169084	0.415977272757	0.722507965954	-0.06998
C	0.352310241026	0.411624994482	0.67697109408	-0.0554
C	0.350975282297	0.436517319948	0.97349041564	0.63248
C	0.0759536677794	0.161598596335	0.877596466162	-0.07119
C	0.0895751253972	0.156196311732	0.833928449689	-0.05458
C	0.0952213406166	0.184861088914	0.804282245241	0.63262
C	0.406832718046	0.0779180749098	0.878782750348	-0.07036
C	0.398088497425	0.0832951523601	0.833178573557	-0.05734
C	0.397267564979	0.0559889690409	0.799311986765	0.63404
C	0.159474527382	0.324831056862	0.716842130005	-0.0706
C	0.146998737491	0.330026424691	0.6721047742	-0.05547
C	0.150919024846	0.306457792483	0.969829158944	0.63405
C	0.249220913827	0.0153304983946	0.737843709964	-0.08608
C	0.260584083939	0.0381568362295	0.827993413585	-0.09011
C	1.00130498214	0.268123823243	0.902311883185	-0.08377
C	0.0105610070581	0.29009274899	0.992546032934	-0.08979
C	0.993006759525	0.479353802209	0.909197207424	-0.08632
C	0.983286564682	0.447883091515	0.991937458207	-0.09007
C	0.238945621977	0.232518900383	0.739489975753	-0.08524
C	0.228760686728	0.202417613377	0.82565986864	-0.09005
C	0.100401213834	0.124849883245	0.820280523056	-0.08669
C	0.0689825412429	0.135283032367	0.905631648024	-0.09006
C	0.14367525605	0.365658658834	0.989746550212	-0.0856
C	0.171022797623	0.350546539012	0.743071284346	-0.08952
C	1.00064172249	0.0170554788794	0.746270679809	-0.08494
C	0.0114026495356	0.0449647286698	0.660757614053	-0.0892
C	0.255192704566	0.264901047776	0.914764305288	-0.08543
C	0.264466417972	0.291971076297	0.828658430421	-0.09002
C	0.241431896944	0.476111045243	0.916325484886	-0.08525
C	0.230415317222	0.443195256813	0.834869261344	-0.08926
C	0.991439744918	0.230404979308	0.750257589341	-0.08619
C	0.979204570382	0.200054484159	0.666069426794	-0.09036
C	0.136245539339	0.113781539292	0.665444791186	-0.08529
C	0.163397784123	0.103773450753	0.90392328874	-0.08866
C	0.102165723823	0.378430319754	0.834292045221	-0.0836
C	0.0798375398237	0.389878781952	0.746008112933	-0.08948
C	0.394825793229	0.366135228973	0.837037245145	-0.08689
C	0.420963942763	0.357795692305	0.747766339237	-0.09045
C	0.352823220424	0.13094234581	0.66277144547	-0.08703
C	0.327163833604	0.140655557712	0.905237637259	-0.09007
C	0.359805477992	0.379055687942	0.990737930169	-0.08495
C	0.331880158583	0.389356735721	0.747232774106	-0.09004
C	0.392429052909	0.114171354768	0.81820485885	-0.08345
C	0.411004528242	0.103679292094	0.908594629546	-0.08977
Al	0.15544315564	0.988901551779	0.684762319809	1.63644
Al	0.407217586864	0.239501826984	0.847569031687	1.63392
Al	0.0826534077855	0.00156412581119	0.851592876306	1.63512
Al	0.336295104502	0.25445513507	0.683696956702	1.63399
Al	0.125808400546	0.0299634788369	0.76875441837	1.63546
Al	0.381192237861	0.280485517922	0.934151707682	1.63341
Al	0.116455923614	0.461927543727	0.937376155163	1.63441
Al	0.36370184661	0.211608686404	0.766371749439	1.63393
Al	0.332371172632	0.00536899013021	0.63377447342	1.63364
Al	0.0888110647908	0.251752750636	0.803256964977	1.63428
Al	0.407626261857	0.989738591268	0.800897341949	1.63382
Al	0.158999902187	0.238248413971	0.633684610093	1.63438
Al	0.366699290603	0.460762445491	0.888616234991	1.63309
Al	0.116981016571	0.211079697326	0.718183549927	1.63246
Al	0.375763655799	0.0323457340257	0.716924362827	1.63427
Al	0.129863662733	0.281830383878	0.887255290845	1.63362
H	0.333370836306	0.337533392077	0.754235572489	0.11101
H	0.405573906348	0.153471809353	0.919898531355	0.10995
H	0.416509946235	0.308604063364	0.762134030629	0.11132
H	0.323459170235	0.189462977858	0.928517114099	0.11107
H	0.283383386702	0.442127687828	0.830213781217	0.11176
H	0.0290612913417	0.198217148098	0.656365209615	0.11101
H	0.461800402114	0.0325144390118	0.647959493804	0.11156
H	0.213245805124	0.283564536727	0.817013827853	0.11054
H	0.148759946997	0.15468478167	0.894272103996	0.11151
H	0.0817412825978	0.33841902958	0.733267546712	0.11152
H	0.433760372802	0.440786597427	0.973812872706	0.11079
H	0.180618721017	0.19698045153	0.805751455403	0.1106
H	0.311197857068	0.035668111271	0.810164035194	0.11035
H	0.0600077712337	0.291361091339	0.978852585648	0.11102
H	0.0697235967138	0.185850322732	0.889101134597	0.11068
H	0.158925225167	0.301264109083	0.731966900155	0.11006
H	0.211649634713	0.0333289787951	0.837853836459	0.11095
H	0.459900224248	0.302490766059	0.988074531593	0.10983
H	0.0336242459254	0.444417063824	0.999790336383	0.11117
H	0.281138437935	0.20402950803	0.834873570973	0.11027
H	0.0786405448806	0.0853054247525	0.919579795147	0.11098
H	0.17572502849	0.401697477427	0.748406631644	0.11099
H	0.062726135926	0.0434585901019	0.681087005846	0.1113
H	0.312987395755	0.301409507703	0.849009693929	0.1109
H	0.180588930487	0.444611728022	0.85035943246	0.11023
H	0.430422869674	0.203004104042	0.671443648535	0.11134
H	0.169805768335	0.054776886975	0.927148576287	0.11091
H	0.0895422453671	0.440301851588	0.757996414563	0.11067
H	0.420881994757	0.40901939837	0.741636005378	0.11061
H	0.323773502567	0.0891566572901	0.898451346572	0.11157
H	0.338950078103	0.438979776227	0.736054490037	0.11079
H	0.407032285334	0.0537680543572	0.893328746004	0.11094
H	0.109983398115	0.489341521382	0.728065527352	0.42035
H	0.359736067407	0.233764365201	0.892574508922	0.4184
H	0.129488836851	0.00374741341721	0.894492091756	0.41889
H	0.388260426282	0.24947303459	0.716894837432	0.41966
H	0.137257486031	0.489655385294	0.820064026372	0.41963
H	0.383058645193	0.233354657776	0.979230101945	0.41881
H	0.110161292403	0.00699309102143	0.979929029828	0.41875
H	0.364785421338	0.259480545829	0.808298554249	0.41824
H	0.382779007782	0.00393051730907	0.933065864122	0.41851
H	0.133164980131	0.259205043555	0.755740577094	0.41879
H	0.367999329097	0.483553305989	0.756534952561	0.41928
H	0.111227157307	0.236936801936	0.929891543036	0.41835
H	0.360604960538	0.00874268376411	0.841330100087	0.41836
H	0.116000448839	0.259896766099	0.678330350965	0.41854
H	0.384593174882	0.485504056681	0.683682551033	0.41949
H	0.131664974055	0.232598325848	0.849697642801	0.4202
H	0.245027603864	0.00317486809126	0.706051707704	0.12932
H	0.263870263265	0.0467412085145	0.8622253908	0.10636
H	0.996929221851	0.265309314002	0.867755453788	0.12872
H	0.0162542915173	0.299506616663	0.696418646038	0.10669
H	0.997826433409	0.486094875438	0.874075267627	0.12985
H	0.977051031596	0.429568047564	0.685829322958	0.10632
H	0.243313682258	0.243766123202	0.707072984662	0.1294
H	0.224886267148	0.192336802166	0.859024808862	0.10652
H	0.10790329393	0.121272535324	0.786118755988	0.12947
H	0.0597721551878	0.139143200534	0.940126841662	0.10665
H	0.136396422294	0.373276422476	0.955737442969	0.12893
H	0.18069477271	0.346093773499	0.777760339923	0.10631
H	0.997404098372	0.00703935584921	0.781250428489	0.12885
H	0.0154572471615	0.0494809809612	0.955829468604	0.10641
H	0.250992106215	0.255072216174	0.949515966464	0.12929
H	0.266583793249	0.309316079599	0.798461390234	0.10613
H	0.243815735915	0.494449960471	0.941117173103	0.1288
H	0.227168169837	0.431685513124	0.802620386725	0.10624
H	0.995409386651	0.238486428918	0.783891192909	0.12918
H	0.983211363125	0.181490913796	0.96310210475	0.10607
H	0.129324870481	0.119049104979	0.699913104813	0.12943
H	0.174735466495	0.100753520856	0.871719277134	0.10639
H	0.109901086435	0.375218700211	0.867592433838	0.12877
H	0.0748357372742	0.394489633948	0.70976870536	0.10626
H	0.38461400788	0.370765174891	0.871644393885	0.12919
H	0.432984824467	0.354580019455	0.71422543252	0.10608
H	0.35870434445	0.126758636607	0.697114295028	0.12904
H	0.320470044298	0.147020630488	0.870673771328	0.10616
H	0.360354706673	0.373887569395	0.954810572806	0.12919
H	0.319872291355	0.393903296942	0.780719649729	0.10685
H	0.387826905301	0.117798256085	0.783894377446	0.12876
H	0.41870304902	0.0996326186147	0.943333776939	0.1075
O	0.190465199775	0.490773646522	0.0596074295293	-0.57949
O	0.171363231401	0.526756792432	0.114233238064	-0.58786
O	0.437479257525	0.744013046805	0.225913245955	-0.58313
O	0.421182265313	0.775388107292	0.281370240516	-0.60833
O	0.0522395504023	0.00294410216831	0.223790980024	-0.57919
O	0.0719739252598	0.9712512459	0.282207169992	-0.58673
O	0.304823961806	0.751039637561	0.0565693700848	-0.58313
O	0.323542730056	0.717004959892	0.108047960951	-0.60827
O	0.128674322851	0.564966915806	0.14332739719	-0.5786
O	0.0962931914507	0.546653985776	0.198013130266	-0.58742
O	0.379823155181	0.81346558304	0.308461172564	-0.58316
O	0.342331543981	0.795193401561	0.0276726248353	-0.60786
O	0.115279448684	0.930536382883	0.312424121911	-0.57819
O	0.150104811682	0.945322265922	0.0278098254021	-0.58814
O	0.366952535056	0.678662674335	0.140620267889	-0.5829
O	0.400123593995	0.699755980596	0.195796291627	-0.6082
O	0.0582079726298	0.515149685938	0.143277559977	-0.5841
O	0.0877764155905	0.539965300913	0.0894525238339	-0.60808
O	0.307699879749	0.763456598507	0.304717942286	-0.5792
O	0.336781747022	0.792918117989	0.254809251533	-0.5859
O	0.186838098653	0.978683983774	0.30718088942	-0.58433
O	0.156800681498	0.950469434666	0.256760224249	-0.60826
O	0.436614976521	0.732412125564	0.140130285678	-0.58004
O	0.409179984385	0.704428616929	0.08934318981	-0.58639
O	0.140306706495	0.562867743086	0.0577932307992	-0.584
O	0.168128088153	0.53233022705	0.342652540216	-0.60721
O	0.389777915885	0.814155182414	0.224142048361	-0.57959
O	0.412217159649	0.784336379908	0.170959145842	-0.58625
O	0.101977493471	0.93293385722	0.225010468857	-0.5843
O	0.0775460748035	0.96203022065	0.172513716785	-0.60803
O	0.358445295215	0.681577379387	0.0549570436636	-0.5791
O	0.330987657122	0.713662583242	0.336752123591	-0.58615
O	0.300783959117	0.00246327134856	0.25979571533	-0.57869
O	0.323014861326	0.970359994273	0.203594928743	-0.58724
O	0.056354630098	0.756071923743	0.0907888225645	-0.5802
O	0.0728488319839	0.719124959137	0.0412903000403	-0.58631
O	0.441294925378	0.493119052311	0.0975635166161	-0.578
O	0.422238237442	0.524908016687	0.0426334447353	-0.58678
O	0.18680118988	0.740237694285	0.255932472847	-0.58008
O	0.169058900929	0.773665920797	0.204554042606	-0.58635
O	0.366812092674	0.931827919854	0.177800694777	-0.57985
O	0.403441976041	0.951185579451	0.124165523877	-0.58599
O	0.116992306096	0.680427840011	0.0106074751683	-0.57962
O	0.149071241915	0.696107739861	0.286904934796	-0.58712
O	0.379268077563	0.561870057871	0.0116742072108	-0.58046
O	0.345488323582	0.547544977284	0.293301657932	-0.58652
O	0.129350120779	0.815593478049	0.174603560923	-0.57992
O	0.0951219718814	0.797402210762	0.122594526632	-0.58697
O	0.437540670534	0.983395062502	0.182346194014	-0.58396
O	0.405774289846	0.953741212227	0.23161866028	-0.6075
O	0.187935602124	0.72882454947	0.0095318990364	-0.58308
O	0.157372755967	0.705032867742	0.0641582324384	-0.60812
O	0.308114515931	0.511688826686	0.017944626491	-0.58353
O	0.337819936463	0.538816811099	0.0693485745698	-0.6074
O	0.0574505074589	0.7675082735	0.176693838505	-0.58239
O	0.0873931309301	0.793029922744	0.230335242998	-0.6079
O	0.353227056992	0.934533887712	0.260393047205	-0.58254
O	0.329419824157	0.960521354012	0.980209799029	-0.60853
O	0.106315543255	0.683851300935	0.0950850881316	-0.5832
O	0.078334134883	0.713332196446	0.145969869072	-0.60822
O	0.391853120748	0.563336467608	0.0976156688402	-0.58326
O	0.415081579514	0.533357410613	0.152930088517	-0.60922
O	0.141595364314	0.813065173625	0.260511257432	-0.5844
O	0.167404483235	0.782160483505	0.975395972611	-0.6083
O	0.129674325079	0.501148980918	0.0602649940278	-0.99602
O	0.377967817033	0.753645935693	0.224518935649	-0.99502
O	0.115632572304	0.993159019855	0.225589218985	-0.99548
O	0.365717848145	0.744712917424	0.0578522818763	-0.99508
O	0.11841463234	0.503822301389	0.144559643193	-0.99661
O	0.36801031825	0.753628415741	0.306946411933	-0.99441
O	0.129528684298	0.490883333548	0.309567297689	-0.99574
O	0.375230773089	0.741800234897	0.140432693538	-0.99415
O	0.365623544554	0.992941620036	0.25873339171	-0.99502
O	0.116057302171	0.745263696857	0.0945599968248	-0.99396
O	0.38056114311	0.502400694326	0.0992174814418	-0.9962
O	0.126285055521	0.752756441821	0.260912534806	-0.99476
O	0.376532645915	0.989877548649	0.177839536016	-0.99282
O	0.126335061766	0.742302013777	0.00980322847694	-0.99472
O	0.36960204754	0.501429191795	0.0161930198645	-0.99441
O	0.116444129724	0.754688324788	0.176365058123	-0.996
C	0.232901612505	0.532718046884	0.148812457143	-0.07068
C	0.226706555519	0.520096964231	0.103829217374	-0.056
C	0.194849138307	0.513201727344	0.0901388673701	0.63837
C	0.481738230215	0.784392947962	0.315801092277	-0.06913
C	0.476281389913	0.772791246355	0.270278675429	-0.05694
C	0.443330970062	0.767935328268	0.253697294541	0.63258
C	0.00752679039153	0.960896790617	0.310920777089	-0.07067
C	0.0154593985166	0.975093958768	0.268810958081	-0.05581
C	0.0492832150295	0.981180889259	0.254349381139	0.63725
C	0.261140910791	0.705393855359	0.139630315447	-0.06989
C	0.267194795199	0.720341107405	0.0987216705066	-0.05548
C	0.300562798099	0.728066412413	0.0832595257182	0.63323
C	0.0825386555288	0.607738996505	0.22409065797	-0.07182
C	0.095812420465	0.602468536147	0.181163347025	-0.05398
C	0.105233990519	0.568948614337	0.169260967125	0.63653
C	0.324983665934	0.856037393177	0.0519496547684	-0.06982
C	0.342230989984	0.850642806304	0.0120135478102	-0.0556
C	0.356174185487	0.818846244427	0.335662926269	0.63208
C	0.157907360112	0.881516856092	0.0615261978343	-0.07153
C	0.144776990742	0.888330943596	0.0174630675839	-0.05618
C	0.139272016516	0.925770904653	0.339094635313	0.63665
C	0.415209845515	0.639793740896	0.230362769	-0.0694
C	0.396307575594	0.643277674746	0.190524851496	-0.05605
C	0.389629007016	0.675671927616	0.172899422288	0.63295
C	0.0417938508041	0.532435886951	0.0237322568682	-0.07185
C	0.0354690686796	0.523163961267	0.0687291944587	-0.05438
C	0.062279387233	0.525101952762	0.101900728773	0.63272
C	0.288553482388	0.792212069	0.191494850711	-0.07009
C	0.283250161961	0.780512624541	0.235877396861	-0.0562
C	0.31110859386	0.777204925897	0.26677332569	0.6368
C	0.2036692141	0.954646619022	0.187720940927	-0.0709
C	0.209732332278	0.965622308183	0.233075513127	-0.05541
C	0.181677046051	0.968332213992	0.265735758815	0.63417
C	0.456238172028	0.709111744975	0.0257728559711	-0.07134
C	0.461263043347	0.722225433296	0.0689071641183	-0.05488
C	0.433390896185	0.720513907967	0.100892006871	0.63665
C	0.159553791207	0.57680230871	0.273797790099	-0.07136
C	0.148642110566	0.583361604173	0.317574736061	-0.05554
C	0.148019549876	0.557086662032	0.0162581646173	0.63343
C	0.403762823593	0.828999080959	0.105467734719	-0.07198
C	0.391037132459	0.833627669174	0.148057231961	-0.05589
C	0.394936703883	0.80783004511	0.181708167499	0.63773
C	0.0833705339696	0.915553639672	0.105229605258	-0.07018
C	0.0964183583482	0.911008384121	0.148966329769	-0.05684
C	0.0955989826421	0.938514317562	0.182816996299	0.63384
C	0.336119455197	0.665172876958	0.272564562396	-0.07172
C	0.345788519706	0.661567361015	0.318612472247	-0.05426
C	0.347711058686	0.685463513748	0.0145049619648	0.63614
C	0.261399497441	0.958867179578	0.169094060112	-0.07147
C	0.266976571636	0.971347239199	0.215615715765	-0.05538
C	0.299917545609	0.980284629986	0.228986478415	0.6371
C	0.010265368697	0.710802697633	0.00833247940988	-0.07109
C	0.0169460297599	0.725516587265	0.0499268597023	-0.05594
C	0.0511923366589	0.732471452761	0.0638885124979	0.63853
C	0.482492503276	0.538847798446	0.0114944331226	-0.07096
C	0.477694123968	0.525510427677	0.0563527502325	-0.05585
C	0.444822616427	0.51552106129	0.0695782991816	0.63617
C	0.23224584469	0.785537580043	0.17374410862	-0.07079
C	0.226765091265	0.772834564813	0.217098096096	-0.05674
C	0.19210064413	0.764959935825	0.230809491948	0.63785
C	0.409501245004	0.886028135723	0.091233183043	-0.0714
C	0.396918552573	0.892989917	0.13478808897	-0.05345
C	0.389195443122	0.927098351567	0.146845464866	0.63631
C	0.158956052888	0.634537613123	0.258543641905	-0.07145
C	0.148771615157	0.641080769491	0.301921001299	-0.05614
C	0.14037344331	0.675465077317	0.981702573869	0.63866
C	0.32920729426	0.608371076657	0.266277725248	-0.07283
C	0.345429794853	0.604719253264	0.306024387677	-0.05483
C	0.358274683808	0.567685270158	0.983062073195	0.63793
C	0.0848032215348	0.858877474422	0.0897939977381	-0.07056
C	0.100772840288	0.854071789015	0.131419367862	-0.05731
C	0.107776174149	0.820541898329	0.145937313036	0.63835
C	0.457661701319	0.94518931358	0.291501742665	-0.07147
C	0.462146841213	0.96234857428	0.249949846839	-0.05522
C	0.43328176816	0.968253142565	0.220858587316	0.63327
C	0.203254051735	0.711213159555	0.13027453803	-0.07024
C	0.209117269044	0.720223892675	0.0850789960697	-0.05471
C	0.18304405211	0.718910288363	0.0522343542692	0.63221
C	0.289784574364	0.530658444332	0.135428373782	-0.07122
C	0.285302170646	0.521987544061	0.0895879227548	-0.05511
C	0.312963560137	0.52032684209	0.0589304165267	0.63287
C	0.0417206323338	0.791035129246	0.295436343631	-0.0707
C	0.0359390736911	0.77728794946	0.253742520688	-0.05425
C	0.0624896731627	0.777229144805	0.21911773616	0.63155
C	0.338742769553	0.911731334107	0.045904948865	-0.06998
C	0.348362709709	0.907379913258	0.998822373484	-0.0554
C	0.345563780694	0.938162537042	0.301342136475	0.63248
C	0.0787607687319	0.665072503382	0.208482462062	-0.07119
C	0.0941067391235	0.660883208978	0.166554267172	-0.05458
C	0.0957588141346	0.688377032382	0.135063721631	0.63262
C	0.422840077692	0.58440881721	0.212989561732	-0.07036
C	0.404667238527	0.587521109981	0.171812692137	-0.05734
C	0.401144119198	0.559144844204	0.140281180611	0.63404
C	0.156313901656	0.824677976144	0.0431727832724	-0.0706
C	0.147383849665	0.83130326255	0.999705823541	-0.05547
C	0.148504008903	0.807034086152	0.303036073841	0.63405
C	0.253208380255	0.514986824049	0.0732954090206	-0.08608
C	0.264616418962	0.539102532755	0.162933473277	-0.09011
C	0.00482498481178	0.764819785376	0.242195170027	-0.08377
C	0.0174481834389	0.79167956397	0.326884139547	-0.08979
C	0.989848860187	0.98100523797	0.238376375505	-0.08632
C	0.975836608028	0.955814976148	0.32423654708	-0.09007
C	0.24010925279	0.727766214347	0.0710674914671	-0.08524
C	0.229875185875	0.701242139046	0.156290541333	-0.09005
C	0.103574026925	0.630474913446	0.15401600016	-0.08669
C	0.0724052812553	0.638697176974	0.237225606795	-0.09006
C	0.14380943375	0.865601750407	0.319860111666	-0.0856
C	0.163878724457	0.848876825436	0.0745627707211	-0.08952
C	0.00365137198473	0.516095653967	0.0814678955328	-0.08494
C	0.0176601139763	0.538739304503	0.992383632098	-0.0892
C	0.252435090404	0.77122314346	0.24945652506	-0.08543
C	0.262030769645	0.798454116664	0.16426669936	-0.09002
C	0.241444409726	0.973338726493	0.247058267951	-0.08525
C	0.229007446925	0.950716827884	0.156739025143	-0.08926
C	0.991295237614	0.732351173319	0.0803844411374	-0.08619
C	0.980271257463	0.702147531394	0.996518932428	-0.09036
C	0.142142192681	0.617753180924	0.997596955234	-0.08529
C	0.167126953353	0.60262206963	0.245146109604	-0.08866
C	0.105982106634	0.879860406367	0.162218034155	-0.0836
C	0.0743164206754	0.889454449956	0.0789028739966	-0.08948
C	0.386915801919	0.86688978013	0.164534764413	-0.08689
C	0.409473948829	0.855187535044	0.0754884183626	-0.09045
C	0.358314911227	0.626391338897	0.996724845263	-0.08703
C	0.325361603857	0.638695827785	0.247789944069	-0.09007
C	0.354397241985	0.879737763382	0.319090865919	-0.08495
C	0.32425641669	0.886454375095	0.0700537705584	-0.09004
C	0.392880371682	0.617644643234	0.160067942275	-0.08345
C	0.424074244699	0.609519427296	0.244228657511	-0.08977
Al	0.157876652829	0.490811719774	0.018286807092	1.63644
Al	0.406331304022	0.742743950152	0.182490732616	1.63392
Al	0.0884061580364	0.50398357065	0.185149834485	1.63512
Al	0.336827554734	0.75218878542	0.0143427735751	1.63399
Al	0.129338993479	0.533312282192	0.101630714907	1.63546
Al	0.37877774238	0.783998128364	0.267173177303	1.63341
Al	0.115088143936	0.961267877305	0.268386636208	1.63441
Al	0.366637291825	0.711942778509	0.0991098008753	1.63393
Al	0.338503135209	0.501571179567	0.975184087344	1.63364
Al	0.0872170591774	0.755794977579	0.135232686243	1.63428
Al	0.40887658095	0.491490557718	0.139757178547	1.63382
Al	0.158517073303	0.740652945299	0.965484860503	1.63438
Al	0.365338983664	0.962996701761	0.217736724198	1.63309
Al	0.11620391108	0.712343517777	0.0528900105626	1.63246
Al	0.379749016896	0.531819927593	0.0558921516035	1.63427
Al	0.127924679758	0.783537922345	0.218203675103	1.63362
H	0.31088995586	0.836512804736	0.0692985942426	0.11101
H	0.419038588747	0.658218635994	0.256074477793	0.10995
H	0.406623794294	0.8046172223	0.0938687581395	0.11132
H	0.338137223918	0.68945586079	0.256853504636	0.11107
H	0.280635970658	0.952800475319	0.146613911514	0.11176
H	0.0303560621671	0.707867929334	0.983199320448	0.11101
H	0.464142438041	0.544443419759	0.986285917217	0.11156
H	0.212865284705	0.78678887963	0.147763431197	0.11054
H	0.16347956549	0.654011145595	0.235284564239	0.11151
H	0.0769813125121	0.838120632702	0.0692984091475	0.11152
H	0.433245651065	0.939520949585	0.301076560911	0.11079
H	0.179866167646	0.704669236915	0.14201535472	0.1106
H	0.315097408738	0.535098427891	0.147841012005	0.11035
H	0.0629833276102	0.803939276823	0.302909208061	0.11102
H	0.0726646963467	0.688512432421	0.221170918397	0.11068
H	0.160836709166	0.800445205654	0.0550359213795	0.11006
H	0.213023777333	0.542053156322	0.170746651102	0.11095
H	0.462893862764	0.790346071219	0.34021153521	0.10983
H	0.0265469149066	0.956933373448	0.335092396367	0.11117
H	0.281174794286	0.701678497255	0.165455731013	0.11027
H	0.076884532152	0.587729164982	0.246433529118	0.11098
H	0.159273354183	0.900148626634	0.0866905018314	0.11099
H	0.0668243720543	0.536633853332	0.0128511615048	0.1113
H	0.311231730997	0.802247254666	0.181643909678	0.1109
H	0.178525621739	0.947814004876	0.176307486758	0.11023
H	0.432064898224	0.702911708937	0.0132634627259	0.11134
H	0.162701414108	0.552216535433	0.262688505596	0.11091
H	0.077083498784	0.939463351162	0.0942972927898	0.11067
H	0.415262681785	0.905048943602	0.0675341030951	0.11061
H	0.315740311735	0.588726125754	0.251050353861	0.11157
H	0.340044412739	0.935206721115	0.0618738661195	0.11079
H	0.430928805989	0.560217536297	0.223503269642	0.11094
H	0.111010281737	0.98352736748	0.0606743445783	0.42035
H	0.359321744239	0.741206945954	0.224808668844	0.4184
H	0.136236564369	0.507432627576	0.225528357882	0.41889
H	0.383573245027	0.758561093607	0.0589275430929	0.41966
H	0.131550364439	0.985373460921	0.146147867531	0.41963
H	0.383721811548	0.737938332375	0.31188925064	0.41881
H	0.11544424525	0.510714528819	0.307696458066	0.41875
H	0.358548356995	0.757577191268	0.145308087497	0.41824
H	0.385070265833	0.511045921268	0.264057936507	0.41851
H	0.135866705522	0.75570551271	0.0967540617083	0.41879
H	0.359928826274	0.98536024211	0.0966805167428	0.41928
H	0.107295168216	0.738037694839	0.257543394874	0.41835
H	0.359189327447	0.506515321985	0.176471005138	0.41836
H	0.107849345633	0.756158026956	0.00239812344495	0.41854
H	0.382049777036	0.984103431131	0.00871722201498	0.41949
H	0.129913492014	0.735419614733	0.180542192998	0.4202
H	0.247484094322	0.50986372494	0.0386908406511	0.12932
H	0.268293136095	0.548829178033	0.197716376197	0.10636
H	1.00068496884	0.75257419014	0.209231436125	0.12872
H	0.0147703435316	0.807007400037	0.0199018572451	0.10669
H	0.995913237216	0.98867927512	0.202655357859	0.12985
H	0.976630036149	0.940175985101	0.0247571561279	0.10632
H	0.245498196298	0.736490996727	0.0356848166578	0.1294
H	0.22573644021	0.688298902691	0.187283506747	0.10652
H	0.114979105499	0.625489991105	0.120800856551	0.12947
H	0.0621538118483	0.644415224433	0.268684613708	0.10665
H	0.13888620808	0.871358147885	0.283286852697	0.12893
H	0.174900738188	0.842384040248	0.108919059032	0.10631
H	0.999432257125	0.505088880205	0.114354376964	0.12885
H	0.0176150983554	0.551167135709	0.296504506987	0.10641
H	0.250357615027	0.762912070301	0.284058988231	0.12929
H	0.266513812499	0.812717146191	0.134160802012	0.10613
H	0.246167144782	0.981558161141	0.279271020626	0.1288
H	0.223640769701	0.939510683317	0.122548780677	0.10624
H	0.996912415952	0.743569591092	0.111527630279	0.12918
H	0.976083563877	0.695804135431	0.289813348774	0.10607
H	0.131146348922	0.621860235472	0.0315491676357	0.12943
H	0.176944403903	0.596962036166	0.21155472191	0.10639
H	0.1183848713	0.877470401537	0.195242925405	0.12877
H	0.0691504523977	0.894684537562	0.0446795166813	0.10626
H	0.38270325954	0.873083915951	0.198148529909	0.12919
H	0.41912197213	0.849437170721	0.0403879330779	0.10608
H	0.364647954409	0.621568726056	0.0304622891365	0.12904
H	0.317226338366	0.640962521274	0.214170217005	0.10616
H	0.358923419712	0.874926159278	0.282790718904	0.12919
H	0.315748250892	0.891012502364	0.102766896474	0.10685
H	0.378777772398	0.620946116443	0.129945347015	0.12876
H	0.437706554296	0.608055163969	0.273113535885	0.1075
O	0.191518356234	0.490747243576	0.396328988348	-0.57949
O	0.172051626887	0.525502486358	0.448536621942	-0.58786
O	0.438372263399	0.745554700469	0.5573045441	-0.58313
O	0.420674745655	0.779588634883	0.610468396891	-0.60833
O	0.0505911702026	0.00341505899816	0.561973081506	-0.57919
O	0.0724564539474	0.967558218351	0.613038824937	-0.58673
O	0.305461800423	0.752493991164	0.388757880652	-0.58313
O	0.324271839856	0.722219156302	0.444188622383	-0.60827
O	0.127421679799	0.561508560129	0.478442663818	-0.5786
O	0.0941265583933	0.543319781182	0.532370054823	-0.58742
O	0.37722037619	0.816232283008	0.643215682929	-0.58316
O	0.342373055049	0.795959309039	0.357099081475	-0.60786
O	0.114638948315	0.928501300172	0.64181351717	-0.57819
O	0.151437695433	0.947249704932	0.364656083984	-0.58814
O	0.365316241905	0.683445055675	0.475902080148	-0.5829
O	0.401351839586	0.701542201737	0.527888428556	-0.6082
O	0.0557813629283	0.512158149089	0.475654279175	-0.5841
O	0.0864402864611	0.536391327398	0.424192884151	-0.60808
O	0.306702535204	0.763255493192	0.640081786948	-0.5792
O	0.336410735199	0.791841638924	0.588588457917	-0.5859
O	0.185643638324	0.976700509097	0.640357057817	-0.58433
O	0.154681205449	0.952299091712	0.586092295443	-0.60826
O	0.436988009603	0.734963849902	0.473421003706	-0.58004
O	0.408178776999	0.70780121517	0.421899332915	-0.58639
O	0.139282809849	0.560931673821	0.393610556113	-0.584
O	0.167193433483	0.530944599866	0.676262444154	-0.60721
O	0.38681767594	0.816299369781	0.555628181315	-0.57959
O	0.413901554518	0.786021846746	0.502523512883	-0.58625
O	0.100742065523	0.930018299316	0.55857951546	-0.5843
O	0.0746009175663	0.960695396708	0.507002376209	-0.60803
O	0.355269988737	0.685055844287	0.39020562809	-0.5791
O	0.331343847642	0.710514060185	0.668611221062	-0.58615
O	0.300274779409	0.00620855787666	0.58913638943	-0.57869
O	0.320417449492	0.968513444528	0.539603247532	-0.58724
O	0.055559646175	0.749276501151	0.427941324351	-0.5802
O	0.0752239019855	0.715844123518	0.373374120558	-0.58631
O	0.441156497928	0.497742789275	0.433373853154	-0.578
O	0.422497069118	0.529757636604	0.378657179268	-0.58678
O	0.188278670313	0.738568282796	0.590415069736	-0.58008
O	0.170398831291	0.774430444493	0.537317226688	-0.58635
O	0.364115291279	0.933377563844	0.509724006813	-0.57985
O	0.400882145208	0.953501092455	0.459107276343	-0.58599
O	0.117197730009	0.680046998886	0.342364037266	-0.57962
O	0.152354688161	0.695141122945	0.622362661593	-0.58712
O	0.378905684974	0.567282891928	0.346732441075	-0.58046
O	0.343791536984	0.545612651104	0.630341657066	-0.58652
O	0.126159772645	0.812360521938	0.507788123023	-0.57992
O	0.0924038551459	0.792944478814	0.454447541026	-0.58697
O	0.432855201572	0.987633619939	0.516829364175	-0.58396
O	0.405238002986	0.95645170503	0.565030317754	-0.6075
O	0.188245019618	0.72636683481	0.341270964225	-0.58308
O	0.159385608895	0.704289703873	0.397932356624	-0.60812
O	0.309142156735	0.515430916565	0.349202213846	-0.58353
O	0.337253262182	0.542853379861	0.400921782428	-0.6074
O	0.0560008914331	0.76250671888	0.511827840465	-0.58239
O	0.0861517941888	0.785609726426	0.565347191283	-0.6079
O	0.353419888317	0.934169466237	0.597366621395	-0.58254
O	0.328611566175	0.962550592844	0.312871882685	-0.60853
O	0.105972696778	0.679543631831	0.428568700623	-0.5832
O	0.0794219944413	0.709645199165	0.480410673913	-0.60822
O	0.390524420624	0.565368560944	0.431131994729	-0.58326
O	0.414201431338	0.537645764985	0.486221086354	-0.60922
O	0.141101528912	0.810641115751	0.594445437849	-0.5844
O	0.165295703515	0.782250167974	0.313501932383	-0.6083
O	0.13054009898	0.499483008618	0.392677719429	-0.99602
O	0.377730472276	0.753869578629	0.556206290115	-0.99502
O	0.113628264593	0.991229833736	0.559662295814	-0.99548
O	0.367330156115	0.745766236217	0.390591872156	-0.99508
O	0.118234904016	0.500100545395	0.476460516355	-0.99661
O	0.369104802091	0.754653524854	0.641692514187	-0.99441
O	0.127212571079	0.489243914711	0.645497979885	-0.99574
O	0.375489822569	0.743711498517	0.476129740514	-0.99415
O	0.363437354339	0.995139795534	0.593884970007	-0.99502
O	0.116075250186	0.741421484522	0.427290728829	-0.99396
O	0.380345741469	0.503760810211	0.434366034098	-0.9962
O	0.130275774913	0.748610811746	0.593415453082	-0.99476
O	0.371563868554	0.993285842152	0.51047870464	-0.99282
O	0.126783397792	0.739646785875	0.34432886879	-0.99472
O	0.370275298428	0.505484913609	0.346419815689	-0.99441
O	0.11730429649	0.751120950696	0.510311043421	-0.996
C	0.235023036409	0.530863096323	0.484938273464	-0.07068
C	0.229283792181	0.519777220615	0.440389700703	-0.056
C	0.195669012372	0.514405658438	0.425038852147	0.63837
C	0.483043683017	0.789054265997	0.64431037783	-0.06913
C	0.476744814557	0.778479666523	0.598626900998	-0.05694
C	0.443244083879	0.76929221844	0.58545904174	0.63258
C	0.00934416625677	0.958225377579	0.646442715071	-0.07067
C	0.0160138894119	0.96961418001	0.602127819133	-0.05581
C	0.0494935018916	0.979196454394	0.590447652596	0.63725
C	0.263620047976	0.700963649052	0.467372677815	-0.06989
C	0.268477754382	0.718845228584	0.427750506283	-0.05548
C	0.301808719597	0.729496262672	0.416402556666	0.63323
C	0.0907996469182	0.605464621497	0.566065149299	-0.07182
C	0.098425020347	0.598584811409	0.520363803154	-0.05398
C	0.103960222319	0.56622040262	0.504777879316	0.63653
C	0.335962772412	0.858958685679	0.392104663633	-0.06982
C	0.348813146612	0.852951177296	0.349227109456	-0.0556
C	0.354653760517	0.820608639954	0.671308525977	0.63208
C	0.160292139475	0.884401111676	0.396592058139	-0.07153
C	0.149126164087	0.891183548959	0.351687193473	-0.05618
C	0.137308905575	0.92291968531	0.671702991331	0.63665
C	0.401480598403	0.638475997556	0.567983537723	-0.0694
C	0.396302748538	0.644734572329	0.521445574072	-0.05605
C	0.388653929961	0.678298871303	0.505074979996	0.63295
C	0.0406876200847	0.53355542625	0.358142964065	-0.07185
C	0.0347061468165	0.521464188771	0.402328657445	-0.05438
C	0.061881609918	0.520218156235	0.434942890426	0.63272
C	0.290075982118	0.78041924677	0.519724721488	-0.07009
C	0.28476625926	0.773022421311	0.565553533509	-0.0562
C	0.311813406068	0.773553985441	0.598276656703	0.6368
C	0.200188954814	0.960418764191	0.520053432352	-0.0709
C	0.206824304656	0.969413654201	0.565501155616	-0.05541
C	0.179834740164	0.969327631556	0.597734483098	0.63417
C	0.455053738676	0.705326348167	0.360592795244	-0.07134
C	0.459172894587	0.724547866693	0.399020551912	-0.05488
C	0.431265308742	0.727161311522	0.430590061996	0.63665
C	0.159202607365	0.575491497942	0.604103516447	-0.07136
C	0.150811375486	0.581600553713	0.650761493814	-0.05554
C	0.149289853316	0.556326660837	0.352078454657	0.63343
C	0.406688136433	0.833532196619	0.436334983345	-0.07198
C	0.397202795647	0.839568284038	0.481753618452	-0.05589
C	0.3970338709	0.811562148905	0.514338347913	0.63773
C	0.0822583768838	0.914298171596	0.440183727455	-0.07018
C	0.0943621585476	0.908391630481	0.483841371369	-0.05684
C	0.0909721961326	0.935039175548	0.518240017388	0.63384
C	0.29228660028	0.655698812435	0.650278367252	-0.07172
C	0.321542287374	0.656522259755	0.674110549884	-0.05426
C	0.348150791417	0.689626638444	0.349237751673	0.63614
C	0.258293946104	0.959665066394	0.507176337947	-0.07147
C	0.264007129493	0.975490752372	0.549683342824	-0.05538
C	0.297270821377	0.982876500097	0.562373489403	0.6371
C	0.013309392975	0.709008433641	0.337733295518	-0.07109
C	0.0189262327436	0.72063998959	0.382483308615	-0.05594
C	0.0513992318507	0.727050272162	0.397651551944	0.63853
C	0.483623184237	0.541128558592	0.346472923031	-0.07096
C	0.477776306026	0.530624801396	0.392113529882	-0.05585
C	0.445128104646	0.521749688315	0.405526441545	0.63617
C	0.232937606476	0.778915111823	0.501912770106	-0.07079
C	0.227317448297	0.768075958205	0.54811588312	-0.05674
C	0.193572301327	0.76045934959	0.560492585356	0.63785
C	0.408508114019	0.891350774064	0.42427413503	-0.0714
C	0.396507998458	0.896974330615	0.468079042894	-0.05345
C	0.389831751482	0.929426379796	0.483758664876	0.63631
C	0.162853397577	0.632963711974	0.589641669484	-0.07145
C	0.151144771968	0.639140514741	0.6345168118	-0.05614
C	0.139895912057	0.674542534143	0.315145019686	0.63866
C	0.299937236087	0.59877928628	0.633078632817	-0.07283
C	0.329971416797	0.599373901431	0.655597183921	-0.05483
C	0.354784557086	0.57119177578	0.31952622972	0.63793
C	0.0785557931578	0.856533430063	0.425384310536	-0.07056
C	0.0915402644106	0.850234472168	0.46796606458	-0.05731
C	0.101866616278	0.816339091433	0.479653992164	0.63835
C	0.455328397911	0.958122284479	0.63103871115	-0.07147
C	0.458415714043	0.970772372173	0.587002928133	-0.05522
C	0.429280320332	0.974541572502	0.557683554668	0.63327
C	0.205891720845	0.707285757413	0.459538865931	-0.07024
C	0.210680030689	0.721371273429	0.415483438892	-0.05471
C	0.184348701093	0.720028370962	0.383122213063	0.63221
C	0.292721785691	0.531701228243	0.468623086724	-0.07122
C	0.287428767805	0.521525906913	0.425921366528	-0.05511
C	0.314270971432	0.524481150494	0.391421703933	0.63287
C	0.0395245358728	0.782845791156	0.630148068745	-0.0707
C	0.0349603764675	0.770072734132	0.587165092221	-0.05425
C	0.0616808322836	0.769920737769	0.554214286885	0.63155
C	0.338084942451	0.916277323672	0.378912668182	-0.06998
C	0.347199105613	0.911070611839	0.333958757273	-0.0554
C	0.342520737554	0.939512521614	0.637234159384	0.63248
C	0.0870762134636	0.662240428681	0.546979452788	-0.07119
C	0.0963161381031	0.65693438805	0.501998861813	-0.05458
C	0.0959944381529	0.683759330312	0.469294067715	0.63262
C	0.395549244873	0.581080113973	0.554863515482	-0.07036
C	0.391431520507	0.586868531277	0.508194242314	-0.05734
C	0.395338229796	0.559674859353	0.475150917339	0.63404
C	0.1561108672	0.827458604445	0.38128252085	-0.0706
C	0.148046576702	0.833998106777	0.335231825378	-0.05547
C	0.150686274634	0.805532976694	0.634784578071	0.63405
C	0.255242943592	0.51612148562	0.41147632832	-0.08608
C	0.267113589883	0.535047553703	0.49935415702	-0.09011
C	0.00330912290196	0.762391719082	0.57297183892	-0.08377
C	0.0131309892514	0.792229366569	0.656800220197	-0.08979
C	0.990335876734	0.977057021976	0.571578070385	-0.08632
C	0.978304173891	0.951677181406	0.659817664782	-0.09007
C	0.242957143937	0.726537634778	0.399912613484	-0.08524
C	0.231939870795	0.697733347766	0.485386811827	-0.09005
C	0.0996166376386	0.625394391857	0.487477872223	-0.08669
C	0.0816070343242	0.636751565745	0.578281377017	-0.09006
C	0.139820158977	0.865785441804	0.65391072039	-0.0856
C	0.16051211196	0.852885976444	0.410674523421	-0.08952
C	0.00266594854644	0.516203148469	0.415754479802	-0.08494
C	0.014455186036	0.53937356916	0.329507826259	-0.0892
C	0.25249315641	0.765801752407	0.578644424225	-0.08543
C	0.265033604267	0.782819539747	0.488203204808	-0.09002
C	0.238283293708	0.97878864924	0.5798405125	-0.08525
C	0.226421716771	0.953028046801	0.492749316782	-0.08926
C	0.991834300594	0.723063982025	0.412853938566	-0.08619
C	0.981266402639	0.702475632678	0.322894684536	-0.09036
C	0.143617895495	0.615099527933	0.332617571957	-0.08529
C	0.166814860455	0.601158713049	0.575238131623	-0.08866
C	0.0976916814434	0.87579093986	0.498791939975	-0.0836
C	0.0741946992023	0.888384114447	0.411753819823	-0.08948
C	0.388243156413	0.870789904571	0.495811786434	-0.08689
C	0.41238474632	0.861045461919	0.407585143775	-0.09045
C	0.355174842832	0.630959946723	0.332709355233	-0.08703
C	0.280411460336	0.626537987656	0.631940055333	-0.09007
C	0.351031776893	0.880473305321	0.655727705063	-0.08495
C	0.330763532051	0.890642641121	0.407949799466	-0.09004
C	0.390692140174	0.618674738906	0.490868539077	-0.08345
C	0.399912409164	0.606894602429	0.583562513856	-0.08977
Al	0.160511986195	0.489892889686	0.35338903429	1.63644
Al	0.40724200557	0.744331733275	0.51530782657	1.63392
Al	0.086919413188	0.501620184872	0.519879891014	1.63512
Al	0.336697078881	0.753998105665	0.347654144788	1.63399
Al	0.129136325688	0.530118412589	0.435719340148	1.63546
Al	0.377805456632	0.785626378084	0.599114925971	1.63341
Al	0.113453107767	0.960151032685	0.600464569288	1.63441
Al	0.365989337713	0.714284155816	0.433121601929	1.63393
Al	0.339606744166	0.504274836361	0.305294089731	1.63364
Al	0.0862572376289	0.750755595518	0.468588014999	1.63428
Al	0.409133297093	0.495966033271	0.475190161073	1.63382
Al	0.156244361478	0.739687719697	0.30074117632	1.63438
Al	0.362986047189	0.964041322171	0.552808611328	1.63309
Al	0.115994215578	0.710006267863	0.385882560242	1.63246
Al	0.379531522768	0.536099359037	0.389836533808	1.63427
Al	0.128855746201	0.780109502156	0.550690751291	1.63362
H	0.335575121677	0.839925103362	0.418222787827	0.11101
H	0.402472467149	0.657240116796	0.592917699499	0.10995
H	0.413676524325	0.808963435589	0.424989254631	0.11132
H	0.277780994466	0.676366777119	0.647897574677	0.11107
H	0.27560153669	0.961585391144	0.479599494485	0.11176
H	0.0324501775684	0.70477924151	0.312791133649	0.11101
H	0.463862226543	0.54475165664	0.324857297849	0.11156
H	0.214645388947	0.777919009874	0.478390839149	0.11054
H	0.172700436699	0.65229441632	0.567499457747	0.11151
H	0.0693920591323	0.837780431624	0.40273039713	0.11152
H	0.431458269945	0.952130630749	0.642049113332	0.11079
H	0.182043199811	0.702878653462	0.471837418375	0.1106
H	0.31666266027	0.538831432648	0.479550300081	0.11035
H	0.0647962518846	0.788058253623	0.641419566427	0.11102
H	0.0871652810199	0.687166610429	0.559752989476	0.11068
H	0.158585148151	0.803483275626	0.394236308154	0.11006
H	0.214503498658	0.536800394348	0.508721949394	0.11095
H	0.46326202201	0.793157513752	0.667083029041	0.10983
H	0.0299236905346	0.955511855437	0.67134227777	0.11117
H	0.282765306402	0.687753613817	0.482491717456	0.11027
H	0.0929510637757	0.587923675206	0.593522803014	0.11098
H	0.165340911234	0.90352210094	0.421532660048	0.11099
H	0.0641834130008	0.538575297173	0.344440148239	0.1113
H	0.313825855037	0.782084852588	0.507852417016	0.1109
H	0.176636766883	0.954616973832	0.509044717734	0.11023
H	0.430834259316	0.697524339904	0.34975260903	0.11134
H	0.160292998389	0.549499174862	0.590499687372	0.11091
H	0.0792069263414	0.938289241083	0.42812013296	0.11067
H	0.416074720107	0.911465145934	0.403873383681	0.11061
H	0.291298650349	0.576462362529	0.616143588472	0.11157
H	0.33302858718	0.940151205018	0.390398704782	0.11079
H	0.399617102068	0.558400435307	0.569428001043	0.11094
H	0.107176739874	0.986589873199	0.393094814791	0.42035
H	0.359882011888	0.737975368289	0.557416345037	0.4184
H	0.137245047527	0.502672570608	0.558647514152	0.41889
H	0.378583373437	0.764341817027	0.400264851613	0.41966
H	0.126204247479	0.979516909066	0.47833854939	0.41963
H	0.381318212212	0.73546890288	0.637574777315	0.41881
H	0.110701971978	0.506005319439	0.650623089931	0.41875
H	0.362509658346	0.763316882383	0.47251769029	0.41824
H	0.386616192489	0.508753695562	0.60391289345	0.41851
H	0.134356781463	0.755254821144	0.42575828924	0.41879
H	0.356847460906	0.989883373755	0.429294817123	0.41928
H	0.11029101581	0.738189509228	0.598494821287	0.41835
H	0.358410019536	0.509324911092	0.513702343567	0.41836
H	0.11447625899	0.760083563417	0.344334448789	0.41854
H	0.381487138766	0.985643231323	0.338408105561	0.41949
H	0.131914247219	0.731171592043	0.508950287055	0.4202
H	0.250527417714	0.518406560503	0.374648366811	0.12932
H	0.273170538755	0.541733699535	0.534991229599	0.10636
H	1.00147182024	0.746600094265	0.541937416283	0.12872
H	0.0202126561651	0.803606985248	0.359791061427	0.10669
H	0.994897439299	0.985063340663	0.535729207359	0.12985
H	0.969792883488	0.94394094492	0.354524811933	0.10632
H	0.247825838177	0.731953615258	0.36673949608	0.1294
H	0.225731699696	0.680012342744	0.511999713151	0.10652
H	0.103376303463	0.619795522267	0.452063548781	0.12947
H	0.075524540421	0.643800600581	0.61365283128	0.10665
H	0.123181870531	0.869321336748	0.625156352193	0.12893
H	0.16601149946	0.847377467922	0.445856993896	0.10631
H	0.999117287295	0.506124603542	0.44765382612	0.12885
H	0.0208925933493	0.557395453733	0.629838495642	0.10641
H	0.246845295357	0.760795858352	0.615055653553	0.12929
H	0.270716668018	0.78402508014	0.45269006178	0.10613
H	0.242707482216	0.984298949705	0.615279743351	0.1288
H	0.221709143743	0.944134834761	0.460105779501	0.10624
H	0.996060490066	0.727918056225	0.449288342003	0.12918
H	0.978819932786	0.685838117753	0.629337194152	0.10607
H	0.13921882615	0.619422206425	0.367546661932	0.12943
H	0.176018263502	0.595156529567	0.54013868887	0.10639
H	0.109653394307	0.868494116269	0.528949081041	0.12877
H	0.0634489571352	0.892724651578	0.379121210894	0.10626
H	0.379964210338	0.875438145985	0.528225645957	0.12919
H	0.422874647738	0.8584468866	0.374359778075	0.10608
H	0.365521538323	0.627153135259	0.365872353791	0.12904
H	0.255065364855	0.627211047893	0.620752531875	0.10616
H	0.361347402248	0.879201741889	0.622815063957	0.12919
H	0.318731310673	0.894763619539	0.439718886784	0.10685
H	0.393050630591	0.6230767556	0.454609909795	0.12876
H	0.405561921684	0.601992712459	0.617857422556	0.1075
O	0.189334717015	0.488075897476	0.732491237055	-0.57949
O	0.171612007402	0.525451799295	0.781598284764	-0.58786
O	0.441632372597	0.740283288489	0.893993600955	-0.58313
O	0.424220942751	0.775952144161	0.947650622795	-0.60833
O	0.053197301882	0.00191790599755	0.895277144427	-0.57919
O	0.0734382109876	0.965060050769	0.945800995738	-0.58673
O	0.305532295198	0.752214808479	0.723582746786	-0.58313
O	0.323595255359	0.72023026071	0.781958534977	-0.60827
O	0.128453788185	0.562559535782	0.810529749492	-0.5786
O	0.0956508124771	0.54483888915	0.864762794084	-0.58742
O	0.378408193541	0.813197031718	0.975991902721	-0.58316
O	0.342273241225	0.797226271329	0.694672635	-0.60786
O	0.114804352919	0.927050372862	0.976183855322	-0.57819
O	0.148005972483	0.945601583399	0.697872105213	-0.58814
O	0.365038686763	0.682130782365	0.814105359349	-0.5829
O	0.401714533649	0.699733666431	0.863521929637	-0.6082
O	0.0569492007552	0.515212863124	0.810524969192	-0.5841
O	0.0872368125728	0.539181815928	0.758327693905	-0.60808
O	0.308329316145	0.761759935193	0.970137299265	-0.5792
O	0.337883926632	0.78870577452	0.919153934629	-0.5859
O	0.188334124476	0.978497931696	0.972139517969	-0.58433
O	0.156567835938	0.950094494596	0.922288129844	-0.60826
O	0.437057576335	0.729507273223	0.808115200611	-0.58004
O	0.407723055199	0.703749426696	0.755734266355	-0.58639
O	0.138897445082	0.560993382908	0.725610643266	-0.584
O	0.165521644962	0.532237503069	0.00599130605653	-0.60721
O	0.391683976239	0.812622679764	0.889345435055	-0.57959
O	0.418641806599	0.782556535438	0.839898893449	-0.58625
O	0.104340502235	0.928816339991	0.890790125151	-0.5843
O	0.0758251398966	0.95907451918	0.839424328558	-0.60803
O	0.353554752285	0.683647047172	0.726282231453	-0.5791
O	0.331164148172	0.711038998856	0.00106155146853	-0.58615
O	0.30347573197	0.00208806056583	0.92132033233	-0.57869
O	0.323714809595	0.966588884725	0.871541413363	-0.58724
O	0.0583128687056	0.752979779375	0.754357131951	-0.5802
O	0.0738326528039	0.715584478603	0.705246071368	-0.58631
O	0.439573576249	0.492054189564	0.763957999361	-0.578
O	0.420207899644	0.530047076451	0.714177603508	-0.58678
O	0.189460979284	0.739307871701	0.92207824094	-0.58008
O	0.171639647892	0.771263124685	0.868764136915	-0.58635
O	0.365899905515	0.92898915126	0.841242034305	-0.57985
O	0.399920183098	0.946173413096	0.787867445555	-0.58599
O	0.118704088125	0.677570967875	0.675303929737	-0.57962
O	0.150138008102	0.698576849692	0.955703883999	-0.58712
O	0.374549524853	0.566488025141	0.684455447905	-0.58046
O	0.344602943075	0.543986933439	0.962474978082	-0.58652
O	0.131469741766	0.811316019392	0.838364270119	-0.57992
O	0.0983538619009	0.793528003776	0.78450468254	-0.58697
O	0.438457431767	0.978365519126	0.842438782436	-0.58396
O	0.408107789926	0.950930035179	0.893954498674	-0.6075
O	0.189016900419	0.726743287171	0.677624096905	-0.58308
O	0.15956243013	0.702312378727	0.730385763379	-0.60812
O	0.309726239497	0.51291743822	0.685182446183	-0.58353
O	0.336069735276	0.538349037608	0.740459386684	-0.6074
O	0.0585800354294	0.763364959589	0.840874754702	-0.58239
O	0.0882472861273	0.790035342677	0.893037424195	-0.6079
O	0.354293252166	0.930919551892	0.926007058302	-0.58254
O	0.325110371759	0.963518950209	0.64367020606	-0.60853
O	0.106820447645	0.680155094933	0.760574601286	-0.5832
O	0.0801381412007	0.710142619792	0.810901315347	-0.60822
O	0.387504288536	0.563282474213	0.77174268813	-0.58326
O	0.416412188981	0.533397502334	0.820801131384	-0.60922
O	0.141093699248	0.811485498786	0.923236876711	-0.5844
O	0.166193190196	0.77990802595	0.646428597427	-0.6083
O	0.129954893038	0.500008680754	0.729230842326	-0.99602
O	0.381078360396	0.751155134308	0.890743689501	-0.99502
O	0.11521501196	0.989833218937	0.892696311085	-0.99548
O	0.365798568857	0.743248505128	0.723374855984	-0.99508
O	0.118567346857	0.502936916635	0.81188113738	-0.99661
O	0.369028466839	0.753520497323	0.975480653878	-0.99441
O	0.127380308036	0.49066557147	0.978327928328	-0.99574
O	0.377361991974	0.742916337089	0.808837491312	-0.99415
O	0.366845946008	0.991707896682	0.927070852692	-0.99502
O	0.117414175756	0.740550371164	0.758090293397	-0.99396
O	0.380896981608	0.501084036121	0.766765301385	-0.9962
O	0.12941591802	0.750202706292	0.924496025504	-0.99476
O	0.376525231805	0.989503154972	0.843837566285	-0.99282
O	0.128524179058	0.737786605774	0.67724453045	-0.99472
O	0.370856930705	0.504374495729	0.683629995499	-0.99441
O	0.119360656114	0.752082551218	0.841165770396	-0.996
C	0.232593213103	0.526838565643	0.821231154774	-0.07068
C	0.228102154998	0.514745556269	0.776567701701	-0.056
C	0.19452646573	0.510393970484	0.760844094144	0.63837
C	0.486593042927	0.784905065197	0.977858053582	-0.06913
C	0.480030396464	0.771438847832	0.934582753253	-0.05694
C	0.446520738347	0.763542493522	0.922950134994	0.63258
C	0.0118065066761	0.957336862634	0.977046183437	-0.07067
C	0.0173020643885	0.970658944997	0.935749674113	-0.05581
C	0.0506733621035	0.977192629304	0.922051540046	0.63725
C	0.261298806562	0.710429275816	0.813628293696	-0.06989
C	0.268384820667	0.722690030536	0.76900853988	-0.05548
C	0.301287130069	0.731890630135	0.756961910225	0.63323
C	0.0812018111544	0.607684247397	0.892563167172	-0.07182
C	0.096075895934	0.600985880822	0.849645533085	-0.05398
C	0.104597163761	0.567943515553	0.837402874763	0.63653
C	0.338099552578	0.858694894738	0.731021689717	-0.06982
C	0.347274952349	0.853483842959	0.68632408334	-0.0556
C	0.35348488215	0.817640084644	0.00171881787572	0.63208
C	0.164112929502	0.885435966905	0.724634492723	-0.07153
C	0.14671527076	0.891587242786	0.682953125186	-0.05618
C	0.137635120037	0.921760610703	0.00360431093052	0.63665
C	0.409666548952	0.640827404382	0.900638843978	-0.0694
C	0.395168785262	0.644316870964	0.857328776722	-0.05605
C	0.389545498009	0.677026698183	0.838767940421	0.63295
C	0.0403692060324	0.5382815194	0.693403834891	-0.07185
C	0.0349611535357	0.521839290004	0.734364041469	-0.05438
C	0.0617570022607	0.522197817273	0.76846617061	0.63272
C	0.290336356652	0.78243278693	0.848808776203	-0.07009
C	0.286026612125	0.771814395491	0.8953103405	-0.0562
C	0.313351260095	0.770700634935	0.928266413993	0.6368
C	0.205014940144	0.953100919122	0.854637683761	-0.0709
C	0.209462149026	0.967622806424	0.897545043078	-0.05541
C	0.182874633576	0.966687947934	0.931804927157	0.63417
C	0.456946731763	0.703971546976	0.689780503601	-0.07134
C	0.461770340658	0.715910333169	0.735146361286	-0.05488
C	0.433731013608	0.718492991166	0.767033140765	0.63665
C	0.160102887005	0.579166189799	0.9406551198	-0.07136
C	0.149292765085	0.584747823423	0.983921575381	-0.05554
C	0.149721006421	0.555480124577	0.685433181955	0.63343
C	0.41653271427	0.83034500104	0.772302549532	-0.07198
C	0.401710173432	0.833719401637	0.815489535	-0.05589
C	0.399673627777	0.806667329582	0.847644544447	0.63773
C	0.079803823187	0.910562845958	0.771064708595	-0.07018
C	0.0931536690918	0.906475146668	0.81604993361	-0.05684
C	0.0928891387901	0.933995826307	0.849457486538	0.63384
C	0.340189318459	0.66321035747	0.939424252584	-0.07172
C	0.350380790136	0.65816146755	0.982854315977	-0.05426
C	0.333684450557	0.686130524509	0.693158903276	0.63614
C	0.262427431335	0.951770993527	0.842992149472	-0.07147
C	0.267659236893	0.969266068505	0.881918574016	-0.05538
C	0.300952866503	0.978847961882	0.894952255254	0.6371
C	0.0113008650346	0.712067266815	0.669242680628	-0.07109
C	0.0173029322243	0.724692080576	0.711658291088	-0.05594
C	0.0518230057567	0.732485409296	0.724532165923	0.63853
C	0.481765048268	0.537275398766	0.67685038431	-0.07096
C	0.476576967254	0.52466127941	0.721131415879	-0.05585
C	0.443732756066	0.516435141158	0.73700615614	0.63617
C	0.232324779763	0.784556513958	0.836954381981	-0.07079
C	0.226739893818	0.773092629888	0.882261019827	-0.05674
C	0.194079898783	0.763757615513	0.895253147293	0.63785
C	0.407144008135	0.886531784936	0.753275604725	-0.0714
C	0.392605263438	0.890824639277	0.797212244963	-0.05345
C	0.387852739743	0.92377844173	0.812753609083	0.63631
C	0.159074290924	0.636510923371	0.923153348486	-0.07145
C	0.144888324575	0.642361665685	0.966642076302	-0.05614
C	0.142613680682	0.672346178343	0.649152183447	0.63866
C	0.337017707111	0.606648075851	0.92544903295	-0.07283
C	0.351178827472	0.600344454331	0.968115324238	-0.05483
C	0.349208682091	0.567727001665	0.658841043049	0.63793
C	0.0864095292398	0.854193758642	0.751609749435	-0.07056
C	0.100794317453	0.849252597958	0.794887543212	-0.05731
C	0.108499554272	0.816321382961	0.809303354041	0.63835
C	0.453507620141	0.959790776206	0.96229115148	-0.07147
C	0.458620076313	0.97270691545	0.919459805755	-0.05522
C	0.43246701604	0.968327125268	0.883863847407	0.63327
C	0.204659717471	0.710012587464	0.795512635386	-0.07024
C	0.210591710184	0.721212310419	0.752402371011	-0.05471
C	0.183700926653	0.719696789562	0.719298675977	0.63221
C	0.288780811728	0.533628745794	0.805654714904	-0.07122
C	0.284272422397	0.520697024704	0.759271795117	-0.05511
C	0.31234706804	0.521338386621	0.728356042155	0.63287
C	0.0394477714056	0.787391726319	0.96026723978	-0.0707
C	0.034554828791	0.774090455062	0.915887065128	-0.05425
C	0.0631526709637	0.772923688277	0.882500794766	0.63155
C	0.328325961082	0.915767626954	0.714504222391	-0.06998
C	0.341505234894	0.911925721014	0.670663485081	-0.0554
C	0.345551001538	0.9351648373	0.967509079434	0.63248
C	0.0844973251289	0.664385884286	0.879282626218	-0.07119
C	0.0976968589633	0.659324526687	0.835361961659	-0.05458
C	0.0991298499182	0.686751000805	0.802650678542	0.63262
C	0.413189270649	0.582382241256	0.888337591299	-0.07036
C	0.399782005462	0.585063184243	0.844292633639	-0.05734
C	0.398101254764	0.557520452952	0.813175853742	0.63404
C	0.166670905909	0.828826251153	0.709749147605	-0.0706
C	0.150873563577	0.83324910581	0.666982356103	-0.05547
C	0.147792781529	0.804852540714	0.966605821277	0.63405
C	0.253765544252	0.512488988488	0.745338631479	-0.08608
C	0.262877510398	0.537508244094	0.835200518626	-0.09011
C	0.00328731750688	0.76363035264	0.903290130604	-0.08377
C	0.0130957798145	0.796687094262	0.986624964654	-0.08979
C	0.991095558903	0.976174915023	0.9057728276	-0.08632
C	0.980274185643	0.947681389293	0.990298790002	-0.09007
C	0.242343806738	0.726906694306	0.737215082093	-0.08524
C	0.229828725858	0.702280653756	0.824373640526	-0.09005
C	0.106626379514	0.626590194947	0.823117718332	-0.08669
C	0.0761239180292	0.639534157524	0.905677099587	-0.09006
C	0.137402869322	0.862210923372	0.989379678836	-0.0856
C	0.17423411765	0.854972887246	0.737626682615	-0.08952
C	0.00421344538458	0.509689280877	0.745535214126	-0.08494
C	0.0151067569552	0.544558649792	0.663401873118	-0.0892
C	0.254199275428	0.766596988791	0.911155600946	-0.08543
C	0.2642130278	0.789613220889	0.821809518178	-0.09002
C	0.24065783607	0.976777661772	0.909961830573	-0.08525
C	0.231060851193	0.94585625354	0.828049372702	-0.08926
C	0.992615093709	0.726496943955	0.743635029208	-0.08619
C	0.983011697466	0.697227387368	0.660584342808	-0.09036
C	0.143560194848	0.613538586614	0.66435858349	-0.08529
C	0.167208512313	0.605733803553	0.910835091769	-0.08866
C	0.104185958944	0.875624893144	0.828267380156	-0.0836
C	0.0743817519949	0.884921166946	0.741797589577	-0.08948
C	0.388520234432	0.863670744881	0.826750905731	-0.08689
C	0.419921182482	0.856601444985	0.742553262321	-0.09045
C	0.3402133305	0.627628379475	0.674793505517	-0.08703
C	0.33058979852	0.638089965918	0.911318012464	-0.09007
C	0.348691349961	0.875757601379	0.980444252294	-0.08495
C	0.325549577553	0.888903431548	0.743021258769	-0.09004
C	0.391988292111	0.616749511158	0.828134650321	-0.08345
C	0.420331362864	0.609710766415	0.915703872093	-0.08977
Al	0.157728990775	0.488639107024	0.688361103598	1.63644
Al	0.408968634271	0.740970846695	0.850748487671	1.63392
Al	0.0877760515105	0.502979863499	0.852526294809	1.63512
Al	0.336989100243	0.753911734893	0.682132428969	1.63399
Al	0.129282890738	0.531668053917	0.769730237301	1.63546
Al	0.379816101018	0.782069366926	0.933306520697	1.63341
Al	0.115240776015	0.958265554874	0.933634880663	1.63441
Al	0.365404218476	0.712967946122	0.768363499895	1.63393
Al	0.338886170768	0.503171951376	0.643619499898	1.63364
Al	0.0889587734044	0.751673245672	0.799109461691	1.63428
Al	0.408528195896	0.490697487608	0.807739711057	1.63382
Al	0.15898197361	0.737553608788	0.634451012602	1.63438
Al	0.366161812226	0.960086351836	0.883584712072	1.63309
Al	0.117854704468	0.70920032179	0.717545277982	1.63246
Al	0.378852814418	0.533790808664	0.725753949094	1.63427
Al	0.130092620942	0.781324749366	0.881251708014	1.63362
H	0.335651867732	0.83724765825	0.754440333944	0.11101
H	0.411494427647	0.660991220983	0.924782924058	0.10995
H	0.430424013538	0.807134363334	0.76720547416	0.11132
H	0.339064050529	0.687735467521	0.925483147873	0.11107
H	0.282890260957	0.945877719548	0.823270419857	0.11176
H	0.0300865488811	0.713037023954	0.64321601067	0.11101
H	0.461776968977	0.541528663752	0.654168174407	0.11156
H	0.213148406623	0.786852549213	0.811733324957	0.11054
H	0.160405967339	0.655176728285	0.898523434134	0.11151
H	0.0860109235403	0.836153263118	0.723862063963	0.11152
H	0.428333058823	0.956311165345	0.976009886787	0.11079
H	0.180660124396	0.707461302317	0.808895082472	0.1106
H	0.312757992885	0.541587207541	0.816238519296	0.11035
H	0.0637768456773	0.786748748986	0.972625469509	0.11102
H	0.08097568423	0.688006408461	0.889749380617	0.11068
H	0.173600160528	0.804295954453	0.720008978965	0.11006
H	0.213302357663	0.528092189349	0.845782392404	0.11095
H	0.467619286421	0.793746018964	0.00101219451724	0.10983
H	0.0282924484014	0.957208567322	0.00252500527013	0.11117
H	0.278334583958	0.711105442186	0.84070311493	0.11027
H	0.0727261203752	0.588297148288	0.915735634284	0.11098
H	0.168469309023	0.903287571008	0.748852296709	0.11099
H	0.0637289652366	0.546701087938	0.682868942185	0.1113
H	0.313651775301	0.792535764413	0.837068369507	0.1109
H	0.179732815919	0.947090126061	0.845282582876	0.11023
H	0.433476558484	0.69753817042	0.676689567853	0.11134
H	0.162259572824	0.555425545145	0.927017481911	0.11091
H	0.0705823992465	0.934293607653	0.762713409818	0.11067
H	0.408116131492	0.90437869274	0.728270018847	0.11061
H	0.331521769088	0.587243306389	0.902053069993	0.11157
H	0.318184396338	0.939029199139	0.725514847858	0.11079
H	0.418104257101	0.558261517993	0.903347436557	0.11094
H	0.113188798315	0.982892686782	0.735219343229	0.42035
H	0.365714157641	0.734703596046	0.892304063703	0.4184
H	0.129374808412	0.511696144035	0.902409261917	0.41889
H	0.385750530705	0.755768411735	0.723381934727	0.41966
H	0.130317439827	0.981098419279	0.811933526554	0.41963
H	0.386811103136	0.737137369847	0.978305510135	0.41881
H	0.109677618462	0.505512494561	0.985407320404	0.41875
H	0.3637178181	0.761393991075	0.808591962877	0.41824
H	0.386134545358	0.507041298996	0.925769737833	0.41851
H	0.134533370341	0.755283662669	0.75450251907	0.41879
H	0.357378326804	0.989677988043	0.76701209405	0.41928
H	0.109771189773	0.737226628639	0.923486924804	0.41835
H	0.363937198174	0.508490373081	0.847644520238	0.41836
H	0.111972490955	0.754796786213	0.674681898745	0.41854
H	0.381677001389	0.987355854309	0.673905851503	0.41949
H	0.133425608193	0.733828873806	0.841977628708	0.4202
H	0.248172240719	0.508258923035	0.709543448699	0.12932
H	0.267748605024	0.54674996643	0.868823609636	0.10636
H	1.00021981927	0.750522268067	0.871425148736	0.12872
H	0.0169593066313	0.808484544264	0.686000804133	0.10669
H	0.996359853497	0.987172874086	0.871020215541	0.12985
H	0.972761877221	0.944508775629	0.696647455933	0.10632
H	0.248069182068	0.732772846055	0.702682146144	0.1294
H	0.225498783131	0.687997163632	0.852822497391	0.10652
H	0.120137145465	0.622848719112	0.793910379984	0.12947
H	0.0679730094573	0.64295676002	0.939908359462	0.10665
H	0.130683482167	0.866153454753	0.953417575073	0.12893
H	0.18885088809	0.850623062867	0.767527046461	0.10631
H	0.999552052403	0.49557540056	0.776661129013	0.12885
H	0.0215849742877	0.552154660473	0.959165469283	0.10641
H	0.250020043319	0.757333279068	0.945170074663	0.12929
H	0.268620089282	0.800481007357	0.788732027975	0.10613
H	0.244074072724	0.988863564015	0.943532600187	0.1288
H	0.227873732586	0.941475876278	0.791142572043	0.10624
H	0.997922688825	0.736293804323	0.776962879469	0.12918
H	0.974756409681	0.695716836367	0.961478933019	0.10607
H	0.134824156599	0.617992878668	0.699911732964	0.12943
H	0.176268553153	0.600688616324	0.877141693178	0.10639
H	0.113147694534	0.870919526169	0.861858587447	0.12877
H	0.0610381048117	0.887633990429	0.70971618151	0.10626
H	0.374867629142	0.867050023844	0.859206420274	0.12919
H	0.433545842624	0.853340360948	0.710224199861	0.10608
H	0.364395772277	0.628958416811	0.691938992936	0.12904
H	0.319826915489	0.642233672439	0.879244785707	0.10616
H	0.350336936759	0.871241898746	0.944644794059	0.12919
H	0.314136031038	0.892835018735	0.774471567349	0.10685
H	0.382440097529	0.620510862497	0.792868973952	0.12876
H	0.431382910841	0.607203026311	0.947270258669	0.1075
O	0.690268496695	0.99472675816	0.0569187747203	-0.57949
O	0.667146814642	0.0249019732877	0.116102339327	-0.58786
O	0.936673527623	0.23902005801	0.224196870723	-0.58313
O	0.918136542984	0.273063068596	0.277850338509	-0.60833
O	0.558344196434	0.502474529818	0.229571381037	-0.57919
O	0.576126193724	0.468601014897	0.281762645491	-0.58673
O	0.805506178366	0.249795199713	0.0584961416963	-0.58313
O	0.824610963234	0.214673224206	0.110043883353	-0.60827
O	0.625494324995	0.063061054883	0.146786248976	-0.5786
O	0.590936715835	0.0455500697516	0.198983128079	-0.58742
O	0.876229258416	0.312408717525	0.305794466475	-0.58316
O	0.843031702649	0.294520905611	0.0293649853455	-0.60786
O	0.617331771107	0.429440909739	0.313956534439	-0.57819
O	0.651837242204	0.447222227454	0.0296242171838	-0.58814
O	0.867558210364	0.178047222141	0.137515327272	-0.5829
O	0.899436437608	0.196337312547	0.191733037309	-0.6082
O	0.553656348948	0.0124123058501	0.144571541746	-0.5841
O	0.583257934722	0.0396274641515	0.0919424768282	-0.60808
O	0.804607116914	0.266099660264	0.305994202393	-0.5792
O	0.835315538476	0.290690775075	0.250743271873	-0.5859
O	0.690571511805	0.477710108264	0.308200963106	-0.58433
O	0.659181231822	0.451213109149	0.259450982841	-0.60826
O	0.936379041843	0.230347003356	0.134937644474	-0.58004
O	0.908003212693	0.204159070821	0.0814675123121	-0.58639
O	0.635794102715	0.0623179938603	0.0589781952498	-0.584
O	0.662132368319	0.0311810367133	0.340692323226	-0.60721
O	0.887812387098	0.31182391079	0.219869685225	-0.57959
O	0.913443178092	0.281114974434	0.169622391316	-0.58625
O	0.607188330043	0.430886071513	0.226976481635	-0.5843
O	0.581152783786	0.460462359876	0.173790041447	-0.60803
O	0.85544392309	0.179887241227	0.0525226054592	-0.5791
O	0.825564163824	0.211293338313	0.339494256949	-0.58615
O	0.808208194683	0.503554074366	0.256140885802	-0.57869
O	0.82557989799	0.47085082379	0.2025111744	-0.58724
O	0.553822541143	0.253170609028	0.0962303243796	-0.5802
O	0.572788297158	0.216789918687	0.0454955120496	-0.58631
O	0.938407467379	0.989975364951	0.0906818612886	-0.578
O	0.918040815378	0.0233279908836	0.0363119982394	-0.58678
O	0.687406658132	0.237828781136	0.258874225411	-0.58008
O	0.669793462955	0.274100864114	0.206914098567	-0.58635
O	0.865072259575	0.430562431367	0.172167287961	-0.57985
O	0.90069901708	0.444730743301	0.118761896261	-0.58599
O	0.615431825422	0.178945701287	0.0142012826299	-0.57962
O	0.645935905294	0.198070355935	0.287959281196	-0.58712
O	0.876489835281	0.0632774330985	0.00571222603413	-0.58046
O	0.841788885093	0.0445423836348	0.289518845477	-0.58652
O	0.624814934521	0.313201870174	0.180158864081	-0.57992
O	0.593251328212	0.294975188145	0.125316951899	-0.58697
O	0.940017149676	0.473896744819	0.174266787691	-0.58396
O	0.909095832455	0.449604906464	0.224504210695	-0.6075
O	0.686567871261	0.227794155975	0.0141074381369	-0.58308
O	0.657362785158	0.204561168722	0.0687141882465	-0.60812
O	0.804155884989	0.0127350583515	0.010061059256	-0.58353
O	0.834468553481	0.0408611938688	0.0587764549762	-0.6074
O	0.555909395686	0.264522477207	0.182009077498	-0.58239
O	0.584990864988	0.28862544652	0.236137115632	-0.6079
O	0.853669102694	0.432461227449	0.25901444753	-0.58254
O	0.828737882744	0.461197363614	0.981314691397	-0.60853
O	0.604761408335	0.181846369476	0.100317308897	-0.5832
O	0.577228308965	0.211349563145	0.150852120768	-0.60822
O	0.886894947247	0.061377557817	0.093121633157	-0.58326
O	0.913913586452	0.0326149376621	0.143693457114	-0.60922
O	0.638818962602	0.310768785786	0.266382698785	-0.5844
O	0.665660574046	0.28235992105	0.98017656048	-0.6083
O	0.626511818875	0.00198005560736	0.0590290472733	-0.99602
O	0.875579106677	0.249087912207	0.221998657137	-0.99502
O	0.618711637118	0.490709300262	0.225303991278	-0.99548
O	0.864551149601	0.241287544674	0.0562239100008	-0.99508
O	0.616122334904	0.00266086978384	0.143281530386	-0.99661
O	0.865253422004	0.251682245147	0.306782189138	-0.99441
O	0.626824734953	0.990233643529	0.309681257358	-0.99574
O	0.875788611991	0.239521652545	0.138480446058	-0.99415
O	0.86900787039	0.491779849774	0.258326058517	-0.99502
O	0.61423962546	0.242922789202	0.0979892263275	-0.99396
O	0.874803331521	4.62095977362e-05	0.0909794543427	-0.9962
O	0.628099643656	0.251075287639	0.261130563469	-0.99476
O	0.878166824729	0.489566193277	0.172903660251	-0.99282
O	0.624703497804	0.241659927285	0.0129926412308	-0.99472
O	0.86557336362	0.00313863468588	0.00885698843009	-0.99441
O	0.616900629789	0.253059154884	0.179656556506	-0.996
C	0.731285542228	0.0390043319817	0.144770605732	-0.07068
C	0.72525310242	0.0253376024891	0.101772010653	-0.056
C	0.690869333758	0.0163543540672	0.0881442792376	0.63837
C	0.979464593707	0.290469434077	0.303722273786	-0.06913
C	0.974662191556	0.273043694356	0.264044303085	-0.05694
C	0.941191461138	0.262888714916	0.25201632945	0.63258
C	0.51195138608	0.4644030221	0.317348396606	-0.07067
C	0.519960524045	0.473657549869	0.273548803287	-0.05581
C	0.553322009186	0.481275715176	0.26026464454	0.63725
C	0.763899515133	0.203739189204	0.144711436633	-0.06989
C	0.769263628454	0.21832855824	0.100918285413	-0.05548
C	0.801446269834	0.226555525692	0.0864008231865	0.63323
C	0.581424806788	0.10667661289	0.231578119763	-0.07182
C	0.597073674628	0.102179421888	0.190328262974	-0.05398
C	0.60309376114	0.06838305196	0.175252280697	0.63653
C	0.839585343724	0.357346252284	0.0641135171516	-0.06982
C	0.847188523391	0.35102667421	0.0184858710296	-0.0556
C	0.851308112399	0.317411509758	0.332938520993	0.63208
C	0.657766134593	0.383254845455	0.0633275849529	-0.07153
C	0.648723629631	0.390170208335	0.0191581783619	-0.05618
C	0.640588937903	0.423642062184	0.342746342945	0.63665
C	0.913343114608	0.134897429521	0.223253002356	-0.0694
C	0.896675028782	0.140125814942	0.181195288146	-0.05605
C	0.889761939225	0.17368401868	0.166230185561	0.63295
C	0.537209072512	0.0335694658171	0.0239177300075	-0.07185
C	0.531007272012	0.0245384933942	0.0707036094242	-0.05438
C	0.558260808652	0.0232065216168	0.103625378909	0.63272
C	0.78814441879	0.283898969773	0.18548744244	-0.07009
C	0.782906287597	0.276619100081	0.231519622998	-0.0562
C	0.809705694268	0.275883966894	0.263895344319	0.6368
C	0.705184753005	0.458299940831	0.188501825358	-0.0709
C	0.711658962527	0.467615178679	0.23392057829	-0.05541
C	0.684483823418	0.469120047011	0.267674442649	0.63417
C	0.958433655473	0.198145787237	0.0224402489682	-0.07134
C	0.961864001231	0.216024880889	0.0635286297293	-0.05488
C	0.933498892107	0.219487455721	0.0937793238151	0.63665
C	0.653048565319	0.0768569772272	0.273507799857	-0.07136
C	0.645392938019	0.082864911554	0.319246254622	-0.05554
C	0.657009689535	0.0607165736989	0.0288928553067	0.63343
C	0.912418123138	0.327938109796	0.103782098964	-0.07198
C	0.897750256123	0.3327194279	0.14522274725	-0.05589
C	0.895483283101	0.305528185265	0.178082654722	0.63773
C	0.584657226014	0.41469635485	0.109352508681	-0.07018
C	0.596576877865	0.407955796889	0.154036358501	-0.05684
C	0.598260545426	0.435265733192	0.184944372239	0.63384
C	0.835682691337	0.16456011808	0.269368668186	-0.07172
C	0.844806293015	0.159141068816	0.314240380917	-0.05426
C	0.84881270455	0.186545713189	0.0101567627735	0.63614
C	0.761934213634	0.459438090782	0.171253503255	-0.07147
C	0.768845640836	0.473056986423	0.215731393755	-0.05538
C	0.80300696169	0.481350847765	0.228218878979	0.6371
C	0.509899079582	0.210742664704	0.00888467866173	-0.07109
C	0.516485381738	0.222853399314	0.0533721159159	-0.05594
C	0.549295631445	0.229010851887	0.0685465755252	0.63853
C	0.979522388461	0.0335083592486	0.0044698153968	-0.07096
C	0.974429513999	0.018681702357	0.047204910907	-0.05585
C	0.940645372822	0.0127886784596	0.0624615602717	0.63617
C	0.73042678578	0.281639645684	0.171468372223	-0.07079
C	0.725546701635	0.265817519012	0.213032045264	-0.05674
C	0.69305336139	0.260853806643	0.229354873448	0.63785
C	0.909713604561	0.384538513858	0.0874316293544	-0.0714
C	0.89452689893	0.389729670428	0.130200389548	-0.05345
C	0.88857584462	0.423564379913	0.145268427336	0.63631
C	0.652978475468	0.133390093294	0.252605875483	-0.07145
C	0.642845532243	0.141045386905	0.297547360527	-0.05614
C	0.640655301567	0.176394679259	0.988454471953	0.63866
C	0.836876583407	0.107052401612	0.252620935609	-0.07283
C	0.848237707737	0.100910409231	0.296416118045	-0.05483
C	0.853494094493	0.0689997004599	0.978803143092	0.63793
C	0.582463748519	0.35666562269	0.0933306036778	-0.07056
C	0.59635634412	0.350526841312	0.136305060795	-0.05731
C	0.603433654113	0.318062312344	0.149688169039	0.63835
C	0.953929633731	0.45837993069	0.296097969545	-0.07147
C	0.959854732704	0.465728488861	0.249540933018	-0.05522
C	0.933948153964	0.466167000174	0.216327372016	0.63327
C	0.706001854873	0.204914268052	0.134322932961	-0.07024
C	0.709472815793	0.219753036183	0.0896100506055	-0.05471
C	0.681598418922	0.220647420134	0.0571700779239	0.63221
C	0.78859717153	0.0365413857407	0.129930139051	-0.07122
C	0.783022093378	0.0265385601874	0.0844114887076	-0.05511
C	0.809286924335	0.0238580225548	0.0505272770515	0.63287
C	0.537403890504	0.286871900418	0.299699621434	-0.0707
C	0.532152264278	0.275805733398	0.253989738369	-0.05425
C	0.559626695803	0.272698842175	0.223759809739	0.63155
C	0.836470082023	0.413770850614	0.0459080475117	-0.06998
C	0.844754605312	0.408936499448	0.00130935167551	-0.0554
C	0.844354033554	0.437956700839	0.300531390031	0.63248
C	0.580952388728	0.166044182437	0.218356463161	-0.07119
C	0.595500326801	0.160192874262	0.174489245099	-0.05458
C	0.593680805899	0.186341736105	0.141118574395	0.63262
C	0.909566155786	0.0781895139924	0.212045328648	-0.07036
C	0.893924715285	0.0818285540347	0.169349760142	-0.05734
C	0.896378652899	0.0559966628902	0.134222272866	0.63404
C	0.653796490706	0.326177001035	0.0469705643387	-0.0706
C	0.646784816336	0.333693266879	0.00127580316409	-0.05547
C	0.651444550388	0.306132119572	0.305922469719	0.63405
C	0.751024637331	0.0223512511656	0.0698025345501	-0.08608
C	0.76322134111	0.0429428306178	0.158626672513	-0.09011
C	0.500529651872	0.269809852881	0.238526152906	-0.08377
C	0.511845419704	0.292693320807	0.328329597539	-0.08979
C	0.494139462406	0.475192491245	0.240488025311	-0.08632
C	0.480550762441	0.46221149875	0.331425242436	-0.09007
C	0.741119664066	0.227425597754	0.0740468137993	-0.08524
C	0.733228632474	0.195583567253	0.159702933493	-0.09005
C	0.603276371704	0.129017430821	0.162216776629	-0.08669
C	0.575782495977	0.139354433214	0.247378947714	-0.09006
C	0.640932344438	0.362844902894	0.326745167709	-0.0856
C	0.66155259039	0.351647267237	0.0763456598277	-0.08952
C	0.49896739765	0.0202367217462	0.0847451462763	-0.08494
C	0.512255979791	0.0419226217158	0.99430675165	-0.0892
C	0.751236192966	0.265238797516	0.244571743249	-0.08543
C	0.762096576088	0.288643457855	0.156776956264	-0.09002
C	0.742998801626	0.47919464805	0.245615216853	-0.08525
C	0.730759640014	0.455082630948	0.15753025575	-0.08926
C	0.489873214246	0.232306478482	0.0827852658713	-0.08619
C	0.478891177175	0.206316603785	0.995860265659	-0.09036
C	0.649996222962	0.117811784926	0.0118321827887	-0.08529
C	0.660391269136	0.101953849821	0.24327239467	-0.08866
C	0.602017634201	0.376051445557	0.167884361739	-0.0836
C	0.579101808454	0.38939174984	0.080118123826	-0.08948
C	0.886828074141	0.363729342199	0.158328951086	-0.08689
C	0.917601614953	0.353855635566	0.0728595356539	-0.09045
C	0.856072785785	0.128368682901	0.992924244293	-0.08703
C	0.830124782732	0.139468100745	0.238521559051	-0.09007
C	0.848212291478	0.378076604751	0.316294956597	-0.08495
C	0.833489059482	0.387965245831	0.0769878442293	-0.09004
C	0.886789546391	0.113389870303	0.154928229881	-0.08345
C	0.918112415967	0.103725153523	0.238908485721	-0.08977
Al	0.658013998446	0.992819114357	0.0169209525574	1.63644
Al	0.905788244273	0.239351719055	0.180060492975	1.63392
Al	0.583759990977	0.00230469477906	0.186570804517	1.63512
Al	0.835849436571	0.25182075398	0.0153618292839	1.63399
Al	0.625863888595	0.0322320984893	0.102467543409	1.63546
Al	0.876318016278	0.281737926586	0.263092329755	1.63341
Al	0.617582134658	0.460133241356	0.269307270013	1.63441
Al	0.866007306672	0.209827137659	0.0960235471419	1.63393
Al	0.834568125138	0.0026117276415	0.966832193476	1.63364
Al	0.58606148751	0.254056836584	0.138932814361	1.63428
Al	0.907022772518	0.990248329094	0.132889116512	1.63382
Al	0.65646596097	0.239742125861	0.970041416929	1.63438
Al	0.867139468332	0.461102153007	0.214340673255	1.63309
Al	0.614975315342	0.211281015306	0.0568374043413	1.63246
Al	0.876067598548	0.0314037353495	0.0493792744835	1.63427
Al	0.62692792825	0.281500768674	0.221998909895	1.63362
H	0.833501179402	0.336797653231	0.0851793093779	0.11101
H	0.923154571831	0.154362382516	0.242821174699	0.10995
H	0.917207145979	0.30444468338	0.0925668182733	0.11132
H	0.829207313819	0.188566671391	0.260671793301	0.11107
H	0.780573875924	0.454299309732	0.148678012	0.11176
H	0.530041977512	0.205447142208	0.986567014174	0.11101
H	0.961310232649	0.03268014394	0.980157234543	0.11156
H	0.711836026526	0.288115225158	0.151023935229	0.11054
H	0.656640846832	0.152796322111	0.22894913822	0.11151
H	0.576594647408	0.337315759134	0.0707168791204	0.11152
H	0.929225117766	0.452429731436	0.307757560605	0.11079
H	0.68141345756	0.199880170224	0.1463293092	0.1106
H	0.811467912764	0.0431391099181	0.141876124979	0.11035
H	0.560644504761	0.296064293199	0.310656763423	0.11102
H	0.578772701391	0.190122007813	0.230978208443	0.11068
H	0.653865493065	0.301922380865	0.0568712541076	0.11006
H	0.712501027813	0.0449702268193	0.167809280994	0.11095
H	0.959086190551	0.298185252728	0.324107053511	0.10983
H	0.532131922957	0.457972744749	0.34030382005	0.11117
H	0.785915378141	0.200117750924	0.167035580224	0.11027
H	0.573924898593	0.0877456086016	0.252106515284	0.11098
H	0.664973914011	0.400903640125	0.0845200253489	0.11099
H	0.5604216113	0.0413772734599	0.012837164138	0.1113
H	0.812645453384	0.289774711394	0.172977067615	0.1109
H	0.680149387078	0.455927783925	0.176606948009	0.11023
H	0.935225052331	0.185950159117	0.0128001647017	0.11134
H	0.654416155868	0.0523641345552	0.261484313003	0.11091
H	0.586037219513	0.439238343817	0.0962202258279	0.11067
H	0.921284116989	0.404810438572	0.0697413709835	0.11061
H	0.833957114709	0.0877216521472	0.227124511543	0.11157
H	0.82802095	0.437789676366	0.0577960044017	0.11079
H	0.918520965405	0.0552942479615	0.223666579458	0.11094
H	0.612173877436	0.48464437607	0.0623873622369	0.42035
H	0.857300403098	0.235492189135	0.222573366761	0.4184
H	0.627435584302	0.0106947153274	0.234071090245	0.41889
H	0.880379271195	0.256990613258	0.0593079388481	0.41966
H	0.633575320578	0.482251851699	0.141480085956	0.41963
H	0.881054573748	0.233415230325	0.30908748493	0.41881
H	0.607535719952	0.00617030364966	0.318470790361	0.41875
H	0.862530315045	0.259453704104	0.143054534857	0.41824
H	0.880537642165	0.00675225222392	0.256100973753	0.41851
H	0.630584084096	0.259619202551	0.091802826035	0.41879
H	0.860614963973	0.484100677565	0.0907202551651	0.41928
H	0.607854726679	0.238801000185	0.259390254728	0.41835
H	0.857510844623	0.00939807333476	0.173216280803	0.41836
H	0.606797333513	0.255421353003	0.00548591070145	0.41854
H	0.882122447996	0.485208706036	0.00888149382495	0.41949
H	0.62771948547	0.232861123937	0.180738265217	0.4202
H	0.746284347105	0.0146562506403	0.035254559046	0.12932
H	0.766898695005	0.0482634726884	0.19379167148	0.10636
H	0.495748401349	0.265891331245	0.203573292034	0.12872
H	0.513353945595	0.320043863113	0.012806925447	0.10669
H	0.499857813684	0.478060566241	0.203720152431	0.12985
H	0.478522017797	0.440842012472	0.0279936166195	0.10632
H	0.745011935828	0.235542900291	0.0380432693284	0.1294
H	0.730290904519	0.193563464461	0.19624020526	0.10652
H	0.614677985443	0.125964538012	0.129795162715	0.12947
H	0.56852266312	0.142685560798	0.282411103107	0.10665
H	0.634591305823	0.366930534207	0.292062236221	0.12893
H	0.668676400761	0.346411228543	0.112796213477	0.10631
H	0.494680305072	0.0190366077545	0.121549772528	0.12885
H	0.516933018201	0.0366657798842	0.286754276002	0.10641
H	0.746769822615	0.25745376176	0.280246513886	0.12929
H	0.766686478812	0.292617336739	0.12004898448	0.10613
H	0.745770219784	0.4907856551	0.277654905472	0.1288
H	0.725991726262	0.444020552446	0.125465462638	0.10624
H	0.494094145091	0.243018484351	0.115056914712	0.12918
H	0.477538220163	0.193961190721	0.292084434375	0.10607
H	0.625088307273	0.114953969955	0.0232065747351	0.12943
H	0.665477439115	0.0934195380619	0.209091308767	0.10639
H	0.608440992562	0.369842769238	0.202988046565	0.12877
H	0.572694060901	0.392865616924	0.0436865599725	0.10626
H	0.877585324519	0.366843505934	0.194048902622	0.12919
H	0.932311677902	0.34937102394	0.0426120396345	0.10608
H	0.859379278515	0.123306304108	0.0286396899557	0.12904
H	0.821996125124	0.142285770579	0.205714804705	0.10616
H	0.849361456964	0.373364495594	0.28067732775	0.12919
H	0.826275359134	0.393543948932	0.111718650212	0.10685
H	0.874503583642	0.116300099799	0.12272808966	0.12876
H	0.93192419551	0.100753710914	0.269636403133	0.1075
O	0.689050012968	0.990048106983	0.395252316158	-0.57949
O	0.66824568795	0.0216362482668	0.452437852406	-0.58786
O	0.936575899717	0.241955450767	0.560161877016	-0.58313
O	0.919661809636	0.274416436907	0.616453141988	-0.60833
O	0.559569648367	0.503955688829	0.561057024549	-0.57919
O	0.575804633351	0.467809526177	0.611032724521	-0.58673
O	0.804378859039	0.254466264664	0.393787932953	-0.58313
O	0.822132892214	0.220012045465	0.445893213562	-0.60827
O	0.627260559481	0.0611353167245	0.48067349033	-0.5786
O	0.592053207714	0.0462928564745	0.533410077747	-0.58742
O	0.876922292607	0.314067520683	0.644476737411	-0.58316
O	0.8416896524	0.29468522846	0.360682994241	-0.60786
O	0.617926558973	0.429556626734	0.641637204949	-0.57819
O	0.652288687366	0.446551251065	0.367285846216	-0.58814
O	0.863873755099	0.180755738256	0.479145215785	-0.5829
O	0.900280251421	0.19883399297	0.529722670345	-0.6082
O	0.553941405241	0.0164868673346	0.475276312497	-0.5841
O	0.585286105633	0.0419878076046	0.422146931215	-0.60808
O	0.805289139256	0.264616259445	0.642904000146	-0.5792
O	0.835652983781	0.28929578373	0.589260716641	-0.5859
O	0.689188732411	0.479386174103	0.64255278103	-0.58433
O	0.660397326376	0.45635431597	0.589275294509	-0.60826
O	0.935298338371	0.233445770132	0.475017796306	-0.58004
O	0.906993172451	0.204306279641	0.424737939146	-0.58639
O	0.639589983845	0.0621413722813	0.394706053935	-0.584
O	0.666242287326	0.0293145097959	0.672802781986	-0.60721
O	0.888208621893	0.311332324184	0.561011978533	-0.57959
O	0.912473390301	0.282558214169	0.507620109976	-0.58625
O	0.60860005774	0.433302734132	0.554522143438	-0.5843
O	0.581698227552	0.463195103204	0.503399336489	-0.60803
O	0.854370345219	0.182504080526	0.389991818983	-0.5791
O	0.829062509777	0.212755488243	0.673507271012	-0.58615
O	0.806406631784	0.50389911323	0.591786539076	-0.57869
O	0.823735924367	0.470352868854	0.538393025553	-0.58724
O	0.554950755471	0.25080559463	0.428111284392	-0.5802
O	0.572897577376	0.220722562384	0.373377345853	-0.58631
O	0.938609611003	0.990052531927	0.426540606667	-0.578
O	0.91763007695	0.0235607789199	0.374321151641	-0.58678
O	0.688779501904	0.240984212746	0.595691662952	-0.58008
O	0.670581658917	0.274492166047	0.541029589564	-0.58635
O	0.865002116221	0.431745687415	0.510878527528	-0.57985
O	0.898935212693	0.449752172014	0.45877662558	-0.58599
O	0.612858122895	0.180888629154	0.340463992292	-0.57962
O	0.649330754929	0.196867420526	0.625200045098	-0.58712
O	0.875295298351	0.063285405601	0.343885069771	-0.58046
O	0.841581444154	0.0441368735538	0.620865886329	-0.58652
O	0.628267392158	0.312835833675	0.510472674785	-0.57992
O	0.593406467496	0.294107250084	0.458308457793	-0.58697
O	0.938177633705	0.478427738804	0.512706938682	-0.58396
O	0.906637652851	0.452634610501	0.565227192714	-0.6075
O	0.684849607162	0.226593515283	0.34291308469	-0.58308
O	0.655163564597	0.202047416325	0.395381911125	-0.60812
O	0.803969785761	0.0144065927846	0.344981060462	-0.58353
O	0.834385794352	0.0379774070583	0.398819554392	-0.6074
O	0.55627491008	0.262954166778	0.513677087507	-0.58239
O	0.586566098425	0.290076048475	0.564767793358	-0.6079
O	0.852397157109	0.431276255934	0.594921821865	-0.58254
O	0.829579426695	0.463844395876	0.311944028929	-0.60853
O	0.601602506802	0.180444771116	0.428353593017	-0.5832
O	0.579487043142	0.210015797986	0.482248010282	-0.60822
O	0.887292988986	0.0597340622543	0.431930275583	-0.58326
O	0.910317675375	0.0289007344692	0.484484852029	-0.60922
O	0.639333470882	0.312624448968	0.597471882209	-0.5844
O	0.666809716831	0.280789237603	0.314613673882	-0.6083
O	0.625238948468	0.00171897204595	0.393027578972	-0.99602
O	0.876817971072	0.249921231214	0.559741416401	-0.99502
O	0.618744119056	0.49323889946	0.55889292673	-0.99548
O	0.864903139969	0.242999444153	0.392841327167	-0.99508
O	0.614534383104	0.00335285693663	0.476116578755	-0.99661
O	0.866831798326	0.253932385596	0.642526154909	-0.99441
O	0.627482845064	0.989419482071	0.643484645218	-0.99574
O	0.874340582361	0.240416606269	0.475402229366	-0.99415
O	0.86554805604	0.492186684056	0.59403628222	-0.99502
O	0.615734711774	0.241666194176	0.428384754173	-0.99396
O	0.877998618894	0.998183386942	0.425943136726	-0.9962
O	0.62722919798	0.250643043058	0.597375885459	-0.99476
O	0.875922034522	0.492696025964	0.511926025205	-0.99282
O	0.62509040997	0.240642230475	0.34531807227	-0.99472
O	0.86550655407	0.000824444907779	0.342594955659	-0.99441
O	0.618066401491	0.251963636945	0.513882500644	-0.996
C	0.730036022465	0.0337637740364	0.480047874323	-0.07068
C	0.723817948251	0.022713748896	0.436557227511	-0.056
C	0.690499098604	0.0126352457415	0.424761884857	0.63837
C	0.981633478813	0.282499994642	0.648100639813	-0.06913
C	0.976123181939	0.27056963345	0.605297624772	-0.05694
C	0.941753113623	0.263097850391	0.591366615818	0.63258
C	0.513635232429	0.46721401318	0.648082673189	-0.07067
C	0.520074281304	0.478672242804	0.60507659192	-0.05581
C	0.553102599367	0.48074281621	0.58742886545	0.63725
C	0.758496459787	0.209954462714	0.479758867026	-0.06989
C	0.76541025026	0.220505791899	0.434007476931	-0.05548
C	0.799249762297	0.230428622034	0.421457649029	0.63323
C	0.584296129411	0.107393071994	0.563567421399	-0.07182
C	0.597483753751	0.10139289332	0.521690204833	-0.05398
C	0.603037309194	0.0677815747369	0.506435387892	0.63653
C	0.838355722911	0.357213894927	0.393886920972	-0.06982
C	0.844782664225	0.350684548428	0.346554134336	-0.0556
C	0.85243264826	0.318887479489	0.671131481114	0.63208
C	0.66026867081	0.382763872381	0.40058914897	-0.07153
C	0.648314806964	0.389565682025	0.355993708637	-0.05618
C	0.640148484339	0.424528276846	0.671782624446	0.63665
C	0.908379387524	0.135851952851	0.565028919821	-0.0694
C	0.895407667112	0.141578184253	0.521354056844	-0.05605
C	0.887746167259	0.175312316682	0.507311306522	0.63295
C	0.538057603461	0.0313678920604	0.354939224435	-0.07185
C	0.531346643144	0.0315812241577	0.402920812627	-0.05438
C	0.559019245519	0.0275391781941	0.433313277352	0.63272
C	0.788477801172	0.284992232291	0.525441351859	-0.07009
C	0.782821295017	0.273748264562	0.570312963811	-0.0562
C	0.809792525759	0.273032480862	0.601176200925	0.6368
C	0.703760816893	0.462648567062	0.523084160102	-0.0709
C	0.70934501947	0.474695152744	0.567524541129	-0.05541
C	0.683776499626	0.474561999904	0.600461815355	0.63417
C	0.95102829092	0.216140462401	0.354917468101	-0.07134
C	0.957425000565	0.225326661572	0.400149891034	-0.05488
C	0.930789549575	0.223012017528	0.434105306517	0.63665
C	0.664416455778	0.0783799490188	0.605060908348	-0.07136
C	0.650360535968	0.0824615655589	0.648541538276	-0.05554
C	0.646720037658	0.0567134693226	0.352453911586	0.63343
C	0.915059844564	0.330732919511	0.448576550956	-0.07198
C	0.898827675924	0.335823715727	0.487725188643	-0.05589
C	0.896088919748	0.307707770697	0.518232577636	0.63773
C	0.583036308651	0.413581439824	0.442178110192	-0.07018
C	0.5945392425	0.409173810718	0.485062886622	-0.05684
C	0.596388732173	0.437373332672	0.514817547077	0.63384
C	0.829183343726	0.163655610901	0.60610933657	-0.07172
C	0.840270351823	0.158112495875	0.650489545005	-0.05426
C	0.844541123703	0.187666563198	0.347607928523	0.63614
C	0.761497585739	0.458295296315	0.509023227528	-0.07147
C	0.766994339573	0.47304909756	0.552191046231	-0.05538
C	0.80034290521	0.481051621758	0.564093280047	0.6371
C	0.511404146092	0.213344043654	0.337730971225	-0.07109
C	0.516702157512	0.222360823079	0.382586573093	-0.05594
C	0.550211365029	0.229305822868	0.397292961429	0.63853
C	0.979691179052	0.0366383810595	0.343177826455	-0.07096
C	0.974234095171	0.0215084486333	0.386546852502	-0.05585
C	0.940517361319	0.0134701733313	0.399915414268	0.63617
C	0.732180142225	0.286326833902	0.511243810774	-0.07079
C	0.727150640402	0.270088570836	0.553261720684	-0.05674
C	0.693709127319	0.263070584219	0.567080862172	0.63785
C	0.912435391225	0.388549733603	0.430560383505	-0.0714
C	0.899588689016	0.394121809444	0.474084958101	-0.05345
C	0.89001511564	0.427258573529	0.48476961463	0.63631
C	0.664532992651	0.135894414356	0.592044262725	-0.07145
C	0.646354283662	0.140549320438	0.632963199689	-0.05614
C	0.636143619476	0.17564703619	0.311655966473	0.63866
C	0.832499146203	0.106437322119	0.590156320847	-0.07283
C	0.846512647782	0.100999491975	0.631862510803	-0.05483
C	0.852987426182	0.0677356652677	0.313530443692	0.63793
C	0.578345060864	0.356304962091	0.429667934598	-0.07056
C	0.593072161705	0.350870134934	0.472062204979	-0.05731
C	0.604022728213	0.317799397254	0.483224547654	0.63835
C	0.955716642346	0.448645572586	0.625022122516	-0.07147
C	0.96115253125	0.464334187815	0.584531173644	-0.05522
C	0.933514137273	0.467742263581	0.553985178207	0.63327
C	0.701797379438	0.205724877346	0.461496626902	-0.07024
C	0.707153503636	0.215003373833	0.416316241194	-0.05471
C	0.680035224748	0.217369969125	0.384723958759	0.63221
C	0.787372726981	0.0371461384515	0.462270484536	-0.07122
C	0.781423074897	0.0248780370394	0.419044477901	-0.05511
C	0.809219163135	0.0222895886142	0.387845889356	0.63287
C	0.538742403096	0.290430605294	0.629271081179	-0.0707
C	0.533967910752	0.277353491573	0.585083022037	-0.05425
C	0.561072746375	0.273899263709	0.554682824557	0.63155
C	0.831771074493	0.415131566874	0.376447515561	-0.06998
C	0.840702536965	0.409422604828	0.330956448606	-0.0554
C	0.842925145571	0.436766902473	0.636588752353	0.63248
C	0.585673331158	0.165137521174	0.548900697045	-0.07119
C	0.596006722153	0.159247469114	0.504042372013	-0.05458
C	0.596026071837	0.186011109409	0.470484042433	0.63262
C	0.909924622964	0.0766395752975	0.549890360719	-0.07036
C	0.896433165381	0.0818005089347	0.50536885613	-0.05734
C	0.893855381762	0.0544538261873	0.473962309997	0.63404
C	0.661681783927	0.325207373918	0.384006075039	-0.0706
C	0.651404110738	0.331007589709	0.339092612879	-0.05547
C	0.647575007192	0.307055863997	0.638854179944	0.63405
C	0.749452015417	0.0194868987557	0.403720665332	-0.08608
C	0.761537087136	0.0438806117616	0.489643824818	-0.09011
C	0.502159377394	0.267352654348	0.57237762897	-0.08377
C	0.512391590114	0.295897262937	0.656512525033	-0.08979
C	0.49326119624	0.488425688879	0.57764832449	-0.08632
C	0.484428931616	0.46277498401	0.664400297226	-0.09007
C	0.739159579634	0.224186636484	0.40332099587	-0.08524
C	0.727888842524	0.201815591156	0.492767508896	-0.09005
C	0.600799661903	0.127353727748	0.490250885974	-0.08669
C	0.581308623093	0.138843822802	0.579151258835	-0.09006
C	0.643183337614	0.365734958007	0.655028779025	-0.0856
C	0.66841332328	0.351571133224	0.412383844714	-0.08952
C	0.499467634411	0.0270402198152	0.417095107145	-0.08494
C	0.512740813765	0.0341651000604	0.323527561963	-0.0892
C	0.751431196199	0.266254978084	0.583428453153	-0.08543
C	0.763244767454	0.291482051528	0.496772291083	-0.09002
C	0.741437151551	0.481233972734	0.581185616159	-0.08525
C	0.730762309855	0.453618588179	0.494198972951	-0.08926
C	0.489648567987	0.227588693291	0.412734280154	-0.08619
C	0.480658900848	0.206419912438	0.323842791554	-0.09036
C	0.638355586634	0.115449662953	0.330110074593	-0.08529
C	0.67256798115	0.105825614238	0.57865025974	-0.08866
C	0.598223540128	0.377355741888	0.501646962889	-0.0836
C	0.575461156997	0.387828741405	0.41238256892	-0.08948
C	0.891322468083	0.367850222792	0.503315543158	-0.08689
C	0.922220451421	0.356741390413	0.419363868011	-0.09045
C	0.85358024529	0.12797706956	0.326434635266	-0.08703
C	0.824482529358	0.137689030004	0.575917594121	-0.09007
C	0.847624225064	0.378576748117	0.654688627457	-0.08495
C	0.830670573236	0.388994001608	0.407637404582	-0.09004
C	0.888845201143	0.11418583463	0.49141787007	-0.08345
C	0.917458175232	0.103939404292	0.577689206466	-0.08977
Al	0.657556395374	0.990385183572	0.352244052679	1.63644
Al	0.905568844592	0.24113654716	0.518606149472	1.63392
Al	0.585066314831	0.00409507629705	0.518043312977	1.63512
Al	0.834885995701	0.253049210854	0.350121103065	1.63399
Al	0.62631316783	0.0319811260988	0.43719502926	1.63546
Al	0.877163326176	0.281857512675	0.602151649438	1.63341
Al	0.617993388236	0.461762414219	0.599399407138	1.63441
Al	0.864907993271	0.212538842545	0.434314540012	1.63393
Al	0.833863903657	0.00256868695083	0.301469996541	1.63364
Al	0.58646177032	0.251693828533	0.471028520129	1.63428
Al	0.906191153178	0.987266466487	0.468688373052	1.63382
Al	0.6559080879	0.239484592304	0.302087990862	1.63438
Al	0.8652782051	0.461843447554	0.552462176558	1.63309
Al	0.613929550227	0.210992080729	0.385157496297	1.63246
Al	0.876443466952	0.0298939352726	0.386508417833	1.63427
Al	0.628094143407	0.281729154582	0.55448405929	1.63362
H	0.839532731655	0.337439810399	0.419360853196	0.11101
H	0.913279534513	0.156782813767	0.587869572159	0.10995
H	0.924020251541	0.307050715197	0.43925432394	0.11132
H	0.823805908018	0.189142978725	0.597232048487	0.11107
H	0.780724939917	0.456618062966	0.484488338279	0.11176
H	0.531960682933	0.204780514458	0.31633888181	0.11101
H	0.958996781386	0.0423095345666	0.320694509979	0.11156
H	0.711529601264	0.295316479722	0.490029649687	0.11054
H	0.669136344541	0.157075358529	0.569051600274	0.11151
H	0.569914470907	0.335482186939	0.408661774031	0.11152
H	0.933904149994	0.436986611913	0.633256400046	0.11079
H	0.678133318355	0.198452924341	0.472128909187	0.1106
H	0.810018774605	0.0457641053823	0.473774811691	0.11035
H	0.562795786594	0.29648359868	0.64096861216	0.11102
H	0.581037517145	0.189955142379	0.560928782452	0.11068
H	0.662473862564	0.300589264661	0.396345516382	0.11006
H	0.712032888191	0.0312972805522	0.507951648736	0.11095
H	0.96295455135	0.281848706132	0.673387927856	0.10983
H	0.534019612198	0.463622501278	0.670624458993	0.11117
H	0.77758896888	0.206848150168	0.502393908177	0.11027
H	0.578085964696	0.0895571003936	0.584558110001	0.11098
H	0.66219027898	0.399963863011	0.426755606087	0.11099
H	0.56388518177	0.0340556566036	0.345159367217	0.1113
H	0.811810494146	0.282037871742	0.512144043793	0.1109
H	0.67954610531	0.465490147884	0.506780455458	0.11023
H	0.926735592593	0.211249375241	0.343400461636	0.11134
H	0.670587235314	0.053861109305	0.593658850187	0.11091
H	0.579222846129	0.437977450099	0.429179434668	0.11067
H	0.917809685009	0.408759925549	0.405940085076	0.11061
H	0.831267680778	0.0875108498497	0.565096163761	0.11157
H	0.831433280086	0.438210709448	0.390966205249	0.11079
H	0.912977213743	0.0526940555738	0.564261244797	0.11094
H	0.611246754938	0.488020247444	0.391450654614	0.42035
H	0.854945135785	0.241720402542	0.556545299308	0.4184
H	0.635590118643	0.00094977930051	0.557761279252	0.41889
H	0.885583551182	0.252558391713	0.385527359259	0.41966
H	0.63162107677	0.483445555197	0.473929860664	0.41963
H	0.877254900931	0.232898469974	0.639642386385	0.41881
H	0.606476103152	0.00390658807979	0.652167918517	0.41875
H	0.860761169684	0.259569547147	0.475575388289	0.41824
H	0.877321186346	0.00578508226782	0.586102098972	0.41851
H	0.629299894053	0.25983221809	0.419293379364	0.41879
H	0.857018828346	0.48792449343	0.426885505875	0.41928
H	0.606755783899	0.238749711228	0.601930714966	0.41835
H	0.853083092412	0.00160452137667	0.500687396754	0.41836
H	0.613719120479	0.259982604381	0.350753844557	0.41854
H	0.88212949079	0.484057287994	0.343946010687	0.41949
H	0.633025992517	0.233160878113	0.509862393533	0.4202
H	0.746118623962	0.0114306371517	0.368989409485	0.12932
H	0.766506059213	0.0558115015622	0.522252969177	0.10636
H	0.497229437069	0.259476523683	0.538551524156	0.12872
H	0.515069403544	0.305030142721	0.360913693063	0.10669
H	0.497212794511	0.502593571878	0.546073847497	0.12985
H	0.473474991735	0.454883821563	0.363720938546	0.10632
H	0.743715119281	0.234369526073	0.372112377147	0.1294
H	0.724467641462	0.191439329876	0.526821073569	0.10652
H	0.612014836348	0.124353759007	0.457022828279	0.12947
H	0.57805583819	0.143520297815	0.614893148476	0.10665
H	0.63362674028	0.369622455848	0.619915720294	0.12893
H	0.681975193446	0.34724138029	0.442140167803	0.10631
H	0.492209246132	0.0237598548206	0.451423069699	0.12885
H	0.515144989508	0.0397328469818	0.620240192852	0.10641
H	0.74673759639	0.250651049851	0.611956695974	0.12929
H	0.766401506453	0.301681243083	0.462609227563	0.10613
H	0.747611632066	0.489633756236	0.612855780319	0.1288
H	0.725908322075	0.442463472983	0.4618558368	0.10624
H	0.494951412474	0.236013725365	0.447443791244	0.12918
H	0.473982342425	0.193495945213	0.622233441798	0.10607
H	0.630334922538	0.120430685723	0.36420254663	0.12943
H	0.684036328115	0.101117233133	0.545761533283	0.10639
H	0.609118615342	0.373706811399	0.534721500985	0.12877
H	0.563059004528	0.39221325259	0.377784528763	0.10626
H	0.887103788156	0.37007845942	0.538952972802	0.12919
H	0.93407568523	0.353338435285	0.387101632271	0.10608
H	0.864108736605	0.125195885287	0.359603411039	0.12904
H	0.811502240601	0.141115851847	0.542404193056	0.10616
H	0.857232152208	0.373935262816	0.620486839449	0.12919
H	0.824554142821	0.394156476486	0.440996735588	0.10685
H	0.873043003178	0.117339034127	0.460715964846	0.12876
H	0.92452965918	0.100643792662	0.613514364726	0.1075
O	0.688719598824	0.986827460972	0.728183109581	-0.57949
O	0.669994100647	0.0230605664629	0.779827868646	-0.58786
O	0.937010490158	0.239741333527	0.892670812267	-0.58313
O	0.919416440509	0.273917743898	0.944744819242	-0.60833
O	0.555628792545	0.503447361171	0.893506607068	-0.57919
O	0.57393203849	0.469000007859	0.947649343886	-0.58673
O	0.80681677943	0.255060460688	0.72879078096	-0.58313
O	0.823563129479	0.21577827656	0.77671386096	-0.60827
O	0.626769395068	0.0641233645977	0.807222770659	-0.5786
O	0.590824246799	0.0468810168248	0.861263701516	-0.58742
O	0.87834206874	0.312819362237	0.975361543198	-0.58316
O	0.843306290992	0.295987619409	0.697838227219	-0.60786
O	0.6172399683	0.42792353698	0.976115119095	-0.57819
O	0.649594032433	0.447541483317	0.697401454591	-0.58814
O	0.866598415142	0.179978699592	0.808598747038	-0.5829
O	0.898659611455	0.198204439356	0.862812094012	-0.6082
O	0.555528785238	0.0133940838654	0.80630716477	-0.5841
O	0.584172704617	0.0402560397398	0.754265558288	-0.60808
O	0.806804543949	0.263521491822	0.974490639694	-0.5792
O	0.835549828533	0.292096339553	0.921890078451	-0.5859
O	0.689346584727	0.479404023978	0.972171262391	-0.58433
O	0.658007967462	0.452257010815	0.921554724078	-0.60826
O	0.936775756489	0.22781709446	0.808477856181	-0.58004
O	0.908318424559	0.204993366381	0.753776646133	-0.58639
O	0.639307276728	0.0604386616547	0.721739452943	-0.584
O	0.660300967727	0.0362597906131	0.00372232172596	-0.60721
O	0.891452130223	0.313287199676	0.887977536355	-0.57959
O	0.9163132017	0.282085592461	0.836709875396	-0.58625
O	0.606053578472	0.431305368241	0.890963967822	-0.5843
O	0.579179977058	0.460658629787	0.838642764287	-0.60803
O	0.856317095533	0.181084523258	0.722094470638	-0.5791
O	0.83001881599	0.209579620113	0.00126235068924	-0.58615
O	0.805138893469	0.501166842081	0.92526894546	-0.57869
O	0.824113522561	0.467855531512	0.869761947658	-0.58724
O	0.553481933645	0.2542630633	0.757377894323	-0.5802
O	0.569937186072	0.218273349832	0.706220182361	-0.58631
O	0.939731403808	0.98981721478	0.756898741598	-0.578
O	0.917861801797	0.0232509210917	0.705433306675	-0.58678
O	0.687011948382	0.238806363077	0.927259751963	-0.58008
O	0.66990900734	0.272442890996	0.873633327807	-0.58635
O	0.867126962812	0.428554487883	0.841411045458	-0.57985
O	0.900162326405	0.446592123554	0.788279130213	-0.58599
O	0.615340962071	0.179859100953	0.677698182673	-0.57962
O	0.648078944049	0.198337352265	0.960287581277	-0.58712
O	0.876302718888	0.0617470751124	0.674856984955	-0.58046
O	0.841420261598	0.0464438307999	0.953600676055	-0.58652
O	0.629371800538	0.312027946664	0.841317727672	-0.57992
O	0.595505222889	0.294417093994	0.789291495806	-0.58697
O	0.937583955044	0.479716920393	0.84731140204	-0.58396
O	0.908281247269	0.453147238489	0.897755884198	-0.6075
O	0.685818094311	0.229655363117	0.681893001936	-0.58308
O	0.656789871264	0.203462475369	0.734469722023	-0.60812
O	0.804725400808	0.0115281670065	0.677531129674	-0.58353
O	0.83431203334	0.0385757175275	0.728635000556	-0.6074
O	0.557296401857	0.265895328575	0.843255499544	-0.58239
O	0.586424309755	0.29101286186	0.896723265682	-0.6079
O	0.854192577634	0.431306664664	0.927823832977	-0.58254
O	0.826487167679	0.461891365523	0.64709424851	-0.60853
O	0.600872207773	0.18180186302	0.761972212739	-0.5832
O	0.5747487414	0.211659755494	0.814209420932	-0.60822
O	0.887616750595	0.0600409523608	0.760012199725	-0.58326
O	0.911895682911	0.0310387014173	0.813631985105	-0.60922
O	0.638777985471	0.311125470353	0.927631213046	-0.5844
O	0.664585835159	0.28311944024	0.649741486305	-0.6083
O	0.630144960198	0.998980869529	0.726991469283	-0.99602
O	0.876861232711	0.251259620987	0.890442355521	-0.99502
O	0.616655680044	0.491194650172	0.892085542832	-0.99548
O	0.866201205587	0.243072261056	0.724804310573	-0.99508
O	0.615468225433	0.00472538567765	0.810229421808	-0.99661
O	0.866956198211	0.252896798013	0.973718257124	-0.99441
O	0.626358746855	0.992762995487	0.977354574759	-0.99574
O	0.874785681716	0.24050575867	0.807364817625	-0.99415
O	0.866570206935	0.491684539498	0.927640032826	-0.99502
O	0.612354699236	0.241853701605	0.760515371196	-0.99396
O	0.878907008217	0.998215997824	0.757756069526	-0.9962
O	0.626489469842	0.249927744947	0.92867839537	-0.99476
O	0.8772674743	0.489659880434	0.844318603645	-0.99282
O	0.625184559537	0.241276627017	0.680444536992	-0.99472
O	0.86688907616	0.00151287103821	0.674480333742	-0.99441
O	0.616577465491	0.25205539113	0.844102345754	-0.996
C	0.73389837315	0.0295126103605	0.813935463236	-0.07068
C	0.726049430069	0.0187994819686	0.769158260545	-0.056
C	0.692083519952	0.0108623628416	0.7552696021	0.63837
C	0.979658458398	0.28281972971	0.978144903939	-0.06913
C	0.9746542917	0.269353453333	0.932815392632	-0.05694
C	0.942414801699	0.263635149592	0.919648831633	0.63258
C	0.513936054682	0.460447582999	0.98152159332	-0.07067
C	0.518038431171	0.474270183263	0.938741340556	-0.05581
C	0.551026686682	0.480682009355	0.923423686291	0.63725
C	0.762143723005	0.20936929248	0.812650406128	-0.06989
C	0.768195273773	0.22531767235	0.770312634181	-0.05548
C	0.800657352432	0.230168141195	0.754675977982	0.63323
C	0.593455751502	0.109475129928	0.898517327906	-0.07182
C	0.6014516562	0.104032376874	0.852405648914	-0.05398
C	0.6051881578	0.0694033523581	0.837434629827	0.63653
C	0.833601771719	0.35941294222	0.730313992028	-0.06982
C	0.842824723433	0.35319948108	0.685435322261	-0.0556
C	0.855153873735	0.317835728263	0.0055402571158	0.63208
C	0.659086449678	0.385162997758	0.730870472966	-0.07153
C	0.647017667506	0.391438672043	0.685519007717	-0.05618
C	0.639630449803	0.423435720815	0.00593146249893	0.63665
C	0.913714036689	0.135706796725	0.891410992769	-0.0694
C	0.89973449598	0.14173860536	0.847407325469	-0.05605
C	0.890971101329	0.17602071065	0.835100265844	0.63295
C	0.537278800041	0.0297562625601	0.684892767222	-0.07185
C	0.531573595001	0.0216768369356	0.731479151867	-0.05438
C	0.559152113297	0.0229557571398	0.765224316101	0.63272
C	0.787074041548	0.28218021516	0.854745733095	-0.07009
C	0.783449808221	0.271517020955	0.899676559063	-0.0562
C	0.811235566268	0.27384351684	0.932290645632	0.6368
C	0.705375892053	0.454070135506	0.856653292207	-0.0709
C	0.709604829029	0.466873881952	0.899333908833	-0.05541
C	0.683011688408	0.468895128705	0.930967802691	0.63417
C	0.953781985877	0.212140041819	0.690663362159	-0.07134
C	0.959577847473	0.222643360292	0.735624256132	-0.05488
C	0.932397119635	0.222557978522	0.766653634451	0.63665
C	0.701827587246	0.0927858155989	0.992271731564	-0.07136
C	0.66969590476	0.0911636434219	0.0114004708555	-0.05554
C	0.649443576333	0.0542978253296	0.680195931341	0.63343
C	0.90708087985	0.325539324874	0.766117541957	-0.07198
C	0.898066193361	0.332074450971	0.812252820217	-0.05589
C	0.897517086666	0.306003519738	0.844861467055	0.63773
C	0.583706264858	0.412969204353	0.774604519007	-0.07018
C	0.595725756583	0.407800119167	0.819031140742	-0.05684
C	0.5943930556	0.435355297765	0.851172333482	0.63384
C	0.841039649399	0.165810763379	0.932981430775	-0.07172
C	0.8509641804	0.160254964451	0.978195643416	-0.05426
C	0.843463573242	0.18642076118	0.68325993025	0.63614
C	0.76127146239	0.453786297822	0.843614774655	-0.07147
C	0.766969484673	0.468848326241	0.885101285619	-0.05538
C	0.800736272681	0.477248659972	0.896674324563	0.6371
C	0.508978625114	0.206380590778	0.674715756004	-0.07109
C	0.514539927154	0.223969301224	0.714077631091	-0.05594
C	0.5476858772	0.230884592387	0.729879389986	0.63853
C	0.980060849033	0.0387811630439	0.67495631984	-0.07096
C	0.974601064841	0.0253266564503	0.717745680566	-0.05585
C	0.941029242534	0.0145369877151	0.731534198633	0.63617
C	0.729964428685	0.288173814058	0.846104429944	-0.07079
C	0.725340762456	0.269679620292	0.884962493824	-0.05674
C	0.692153466757	0.261589271924	0.89882837798	0.63785
C	0.905116204701	0.382808097292	0.750650207646	-0.0714
C	0.895116245867	0.389764456533	0.797050299435	-0.05345
C	0.889951587853	0.422948386274	0.813165850233	0.63631
C	0.69291193395	0.148088182219	0.972162185306	-0.07145
C	0.662792494249	0.148126841646	0.992771018963	-0.05614
C	0.638750061977	0.174516849039	0.649154520318	0.63866
C	0.839428041782	0.107937042912	0.917424876069	-0.07283
C	0.849355878782	0.101975660551	0.963798095408	-0.05483
C	0.852813086704	0.0669230686131	0.646232036663	0.63793
C	0.583499517384	0.356521493342	0.758106415499	-0.07056
C	0.5978218951	0.35047120922	0.801315697362	-0.05731
C	0.604569736345	0.317498846309	0.816043304744	0.63835
C	0.95681289516	0.45629936532	0.962639843808	-0.07147
C	0.962398640929	0.468032010444	0.9198118362	-0.05522
C	0.933682864957	0.469440189023	0.887371311352	0.63327
C	0.704473647528	0.210927356755	0.802159433988	-0.07024
C	0.708869346939	0.222618254041	0.756815899264	-0.05471
C	0.681472180394	0.220772010529	0.724202969	0.63221
C	0.790647147272	0.0264644771466	0.797677354702	-0.07122
C	0.783341103819	0.019657443823	0.751833328723	-0.05511
C	0.810830399752	0.0199225365874	0.719621973764	0.63287
C	0.538243301987	0.292814260458	0.959007091065	-0.0707
C	0.533732394489	0.277218351583	0.916025693001	-0.05425
C	0.561873722056	0.274440500127	0.88521917507	0.63155
C	0.830730782503	0.41652598214	0.714194033031	-0.06998
C	0.842039869439	0.410856912464	0.6696649293	-0.0554
C	0.844790922666	0.436166770849	0.969923815892	0.63248
C	0.590075383877	0.165383070357	0.88413507418	-0.07119
C	0.596310488787	0.159938086128	0.837233148026	-0.05458
C	0.593167072894	0.187059604256	0.803933451613	0.63262
C	0.911954758883	0.0780822677344	0.877249506327	-0.07036
C	0.898587065522	0.0831990135433	0.834424022601	-0.05734
C	0.897768210467	0.0567213543481	0.800752301719	0.63404
C	0.655959445853	0.327435972356	0.716849232733	-0.0706
C	0.647099006442	0.333234759592	0.671153123844	-0.05547
C	0.649446697993	0.307230890714	0.96795284756	0.63405
C	0.750541271515	0.014449854269	0.738522852975	-0.08608
C	0.76571540681	0.0338235948969	0.827969046222	-0.09011
C	0.502507728012	0.26845753327	0.90100002281	-0.08377
C	0.511502851491	0.301523775654	0.986745379416	-0.08979
C	0.491578859253	0.47900010251	0.909624827666	-0.08632
C	0.482859892869	0.451122573788	0.995192948714	-0.09007
C	0.739530652782	0.232401666879	0.742440378617	-0.08524
C	0.730455749394	0.201660229601	0.826915615391	-0.09005
C	0.604598670774	0.128981600811	0.821978145977	-0.08669
C	0.588771816414	0.140147659476	0.914494445487	-0.09006
C	0.644912645458	0.365253991723	0.98745311995	-0.0856
C	0.666524997525	0.353082036796	0.743294808663	-0.08952
C	0.499267843486	0.0155885447303	0.748381922761	-0.08494
C	0.511871054513	0.0345165648845	0.65655372418	-0.0892
C	0.751166716051	0.264597140085	0.915550545886	-0.08543
C	0.760994539916	0.29368616063	0.830110203088	-0.09002
C	0.741345456646	0.475944356825	0.912927895187	-0.08525
C	0.731740464679	0.445655614146	0.829967246139	-0.08926
C	0.488059591155	0.231671729394	0.741371617704	-0.08619
C	0.477629194738	0.204044119274	0.65707289136	-0.09036
C	0.640271862912	0.114802213867	0.661769810008	-0.08529
C	0.713133042767	0.121144987785	0.973253216853	-0.08866
C	0.603036174185	0.375928281049	0.832096491314	-0.0836
C	0.575311785095	0.387476613912	0.745758877131	-0.08948
C	0.889441940856	0.363262447637	0.826034090997	-0.08689
C	0.911858534439	0.350762168259	0.73592949521	-0.09045
C	0.84910852712	0.126004844376	0.664021795447	-0.08703
C	0.833992419238	0.139217264622	0.9031704043	-0.09007
C	0.853621207298	0.378197388751	0.98740313901	-0.08495
C	0.828675213532	0.390953983412	0.74477650868	-0.09004
C	0.89241414311	0.115305700481	0.820020054121	-0.08345
C	0.919507713664	0.10440835434	0.905568468145	-0.08977
Al	0.657374051298	0.98757958663	0.684976847972	1.63644
Al	0.906329617583	0.23980729129	0.850010941332	1.63392
Al	0.58462246244	0.00443345197432	0.850149062527	1.63512
Al	0.83685511579	0.254299454016	0.685547651063	1.63399
Al	0.626927027221	0.0320097054556	0.766837364672	1.63546
Al	0.87830029709	0.28254092641	0.933087713652	1.63341
Al	0.616422264123	0.461048072616	0.934747832246	1.63441
Al	0.865577344627	0.211190427813	0.765504137665	1.63393
Al	0.834793663963	0.00143525148875	0.634658196381	1.63364
Al	0.585069117272	0.253334974007	0.80137508956	1.63428
Al	0.907690817154	0.988786329701	0.800284455631	1.63382
Al	0.655808685033	0.240368411067	0.638183784571	1.63438
Al	0.866844105553	0.460948656495	0.884480384088	1.63309
Al	0.613777454443	0.211325620238	0.720302845107	1.63246
Al	0.876376897705	0.0302046303708	0.71698760612	1.63427
Al	0.628247351294	0.281196502396	0.885294745368	1.63362
H	0.827731767343	0.339255529252	0.751906101502	0.11101
H	0.917032785073	0.155254324443	0.915151334352	0.10995
H	0.910519342988	0.301345757924	0.758026477126	0.11132
H	0.838387181904	0.190607803352	0.918826290844	0.11107
H	0.781012785586	0.44596209043	0.823210272297	0.11176
H	0.528108149283	0.191909327412	0.658833515647	0.11101
H	0.959988497627	0.0461822315658	0.654934874807	0.11156
H	0.711139643767	0.29705413821	0.822196058667	0.11054
H	0.69956949893	0.170755259104	0.957630876497	0.11151
H	0.574067574257	0.336148114689	0.737768181476	0.11152
H	0.933832034984	0.455539422052	0.97776792421	0.11079
H	0.680192916058	0.20392671989	0.811246122743	0.1106
H	0.815254554354	0.0300600988814	0.809036430367	0.11035
H	0.563286718652	0.295877005055	0.973290598158	0.11102
H	0.584726748732	0.191199321029	0.896403267017	0.11068
H	0.656511208613	0.303839652981	0.729694262748	0.11006
H	0.714647687974	0.0361665242065	0.838316724988	0.11095
H	0.960176054785	0.282759979286	0.00477592121173	0.10983
H	0.532383288508	0.46064686187	0.00496134801173	0.11117
H	0.779425348366	0.209634924247	0.838970889917	0.11027
H	0.590365002614	0.0891248771825	0.922081457914	0.11098
H	0.659442016479	0.404983899808	0.756017868192	0.11099
H	0.562271038896	0.0366049532512	0.673950182658	0.1113
H	0.810942636307	0.287452197491	0.840738724209	0.1109
H	0.682449565333	0.451658508457	0.841911688482	0.11023
H	0.929571049641	0.208953791728	0.677665678596	0.11134
H	0.717294108884	0.0717409917392	0.993604139652	0.11091
H	0.580478423298	0.437056441055	0.760446232161	0.11067
H	0.907181178679	0.402765720749	0.727846271878	0.11061
H	0.830375549573	0.087765659854	0.893295348158	0.11157
H	0.826521455464	0.438631169166	0.727240185512	0.11079
H	0.91650682283	0.0523703629777	0.89023379394	0.11094
H	0.609209477215	0.48869784501	0.723677614759	0.42035
H	0.857336620492	0.237195434095	0.889433153045	0.4184
H	0.630949291275	0.00899197209792	0.895172738965	0.41889
H	0.880897847587	0.259780024711	0.730374456073	0.41966
H	0.635440602607	0.487751995701	0.814033170465	0.41963
H	0.883651905765	0.237269302095	0.98300514149	0.41881
H	0.611656558925	0.0137746960485	0.977214043136	0.41875
H	0.857224714803	0.256363907837	0.81134368832	0.41824
H	0.882102437188	0.00722401887313	0.925243372463	0.41851
H	0.630669571318	0.256939199077	0.758844140472	0.41879
H	0.858938188446	0.48526474218	0.756051729782	0.41928
H	0.610197039743	0.234159253516	0.927134503966	0.41835
H	0.861172978469	0.00615719272029	0.843127845877	0.41836
H	0.607524804849	0.256034208868	0.6730512922	0.41854
H	0.885473328902	0.487937888456	0.667922256164	0.41949
H	0.635110138157	0.237563074951	0.83776983468	0.4202
H	0.746793979817	0.00234093233202	0.706450171286	0.12932
H	0.770180880261	0.0447765379897	0.862721820245	0.10636
H	0.497768370435	0.258016722392	0.869157324433	0.12872
H	0.515193327043	0.307085404553	0.688913146545	0.10669
H	0.49689764369	0.48651474282	0.875563452003	0.12985
H	0.482434517027	0.45154380657	0.698282651947	0.10632
H	0.742348952307	0.240120680484	0.708184635939	0.1294
H	0.728318419919	0.190021143878	0.859439235138	0.10652
H	0.612706030444	0.124122287171	0.787628047603	0.12947
H	0.583302630527	0.146544752054	0.950597644137	0.10665
H	0.636324732208	0.371452502834	0.952118657707	0.12893
H	0.678752680253	0.348684235242	0.775582529985	0.10631
H	0.496906426643	0.00672640318103	0.782847291358	0.12885
H	0.5179815514	0.0534698988568	0.960873340312	0.10641
H	0.745076502467	0.258744712292	0.950694810172	0.12929
H	0.764388788236	0.308207035395	0.801063544431	0.10613
H	0.746566554895	0.490619730763	0.943877057377	0.1288
H	0.72790872098	0.434127732454	0.796464346714	0.10624
H	0.49189289622	0.242869342641	0.773977958278	0.12918
H	0.473115214098	0.195034734484	0.962641704046	0.10607
H	0.634357405037	0.118770075124	0.696503212361	0.12943
H	0.738454427671	0.121314514663	0.963894266672	0.10639
H	0.611741795375	0.370862550231	0.864410908478	0.12877
H	0.569412106157	0.393425680274	0.711157089663	0.10626
H	0.878871775258	0.365104692259	0.859432677285	0.12919
H	0.914150891876	0.344817030089	0.69971066798	0.10608
H	0.863193902806	0.123260818838	0.695798384992	0.12904
H	0.826644790305	0.142282264215	0.869555044109	0.10616
H	0.862426938328	0.374359701966	0.953294592648	0.12919
H	0.822661120437	0.396308225921	0.780413778053	0.10685
H	0.887491851009	0.118480752364	0.783776781675	0.12876
H	0.932266503846	0.099833779189	0.938172105939	0.1075
O	0.689835360467	0.490157804681	0.0575189114191	-0.57949
O	0.67154863343	0.524244971681	0.109424475314	-0.58786
O	0.938648746587	0.73913492133	0.230550097157	-0.58313
O	0.922108714192	0.774992343863	0.280557641706	-0.60833
O	0.552979668836	0.00184329391308	0.229678197464	-0.57919
O	0.5744282862	0.967903054824	0.28135705579	-0.58673
O	0.807888547746	0.754085949297	0.0642982184431	-0.58313
O	0.825560356015	0.71739347832	0.115507729228	-0.60827
O	0.631366411325	0.563237699413	0.142373547041	-0.5786
O	0.59810145839	0.544730624312	0.198504956822	-0.58742
O	0.877686534278	0.813557009123	0.308253318436	-0.58316
O	0.847277313171	0.795295040976	0.0289005813895	-0.60786
O	0.618916673692	0.928871292464	0.309642047539	-0.57819
O	0.652499516617	0.949922027991	0.0306356269769	-0.58814
O	0.870617797602	0.680910112694	0.14319451147	-0.5829
O	0.901467375343	0.698876780339	0.198264504214	-0.6082
O	0.558098764094	0.5149829907	0.14282540171	-0.5841
O	0.587719258181	0.540306299084	0.0904963228904	-0.60808
O	0.807578505056	0.762560069656	0.305463164929	-0.5792
O	0.837381502221	0.789169775027	0.252024894125	-0.5859
O	0.687667896999	0.979087617909	0.309189126591	-0.58433
O	0.658348283599	0.955217224658	0.254749914706	-0.60826
O	0.940654859279	0.728886211706	0.143780337194	-0.58004
O	0.910762326027	0.705747902364	0.0917737908774	-0.58639
O	0.640815619673	0.562747364656	0.0575429139313	-0.584
O	0.668650169054	0.529964305164	0.340174964727	-0.60721
O	0.88893683465	0.811711387084	0.222763291283	-0.57959
O	0.919758646211	0.781926259251	0.173731277829	-0.58625
O	0.606347772189	0.931156026139	0.225951247265	-0.5843
O	0.578735994384	0.961076188212	0.176268435922	-0.60803
O	0.859923097958	0.682332529013	0.0595981805013	-0.5791
O	0.829564529904	0.711544128546	0.337739712212	-0.58615
O	0.802911287043	0.00318875280291	0.260694844738	-0.57869
O	0.823700220555	0.96896003571	0.206030600136	-0.58724
O	0.557958022674	0.754225457444	0.0973646548599	-0.5802
O	0.57403695508	0.720707008931	0.0421997635302	-0.58631
O	0.939253562266	0.487122195272	0.0883021554996	-0.578
O	0.922443552948	0.524184632605	0.037353640771	-0.58678
O	0.689101506963	0.742354545175	0.262914925589	-0.58008
O	0.671341540787	0.77615803734	0.209695562194	-0.58635
O	0.864916812119	0.930125439025	0.174973788564	-0.57985
O	0.898801940805	0.947815946089	0.121494158801	-0.58599
O	0.615882820612	0.683177740183	0.0111099638787	-0.57962
O	0.648709319114	0.698475212904	0.290573059496	-0.58712
O	0.877528911307	0.563012121337	0.00650028119042	-0.58046
O	0.848189561965	0.545220039329	0.285681228215	-0.58652
O	0.629646638654	0.814205215839	0.181090670445	-0.57992
O	0.596888725044	0.7967014751	0.125333833069	-0.58697
O	0.937495399028	0.978555775768	0.174977406196	-0.58396
O	0.909261089882	0.953667438605	0.227889981741	-0.6075
O	0.689369148233	0.732500383268	0.0123818527545	-0.58308
O	0.660584655705	0.703191808604	0.0621738192641	-0.60812
O	0.80588233283	0.515285933001	0.010256680115	-0.58353
O	0.838228206843	0.538754274493	0.0640971930923	-0.6074
O	0.558820650598	0.766551187384	0.182582196488	-0.58239
O	0.588001083779	0.791485347478	0.23445906962	-0.6079
O	0.854347140753	0.931905924473	0.262309955297	-0.58254
O	0.830978404636	0.960163890181	0.979374429735	-0.60853
O	0.605376300722	0.682872310363	0.0955309927377	-0.5832
O	0.581015316079	0.712472044221	0.150524393143	-0.60822
O	0.891586913083	0.560755914651	0.0941645706057	-0.58326
O	0.916611892602	0.528646376438	0.144581189741	-0.60922
O	0.64097945663	0.812291935266	0.264385320703	-0.5844
O	0.668225835215	0.784441196084	0.980901211628	-0.6083
O	0.629847434783	0.50011037336	0.0571616109646	-0.99602
O	0.880144999123	0.75073901219	0.225979844032	-0.99502
O	0.615569358903	0.992597303455	0.224689104584	-0.99548
O	0.86808238754	0.74416915972	0.0601301100068	-0.99508
O	0.620788098335	0.50124621372	0.142010002356	-0.99661
O	0.868788660198	0.752838843615	0.30741150791	-0.99441
O	0.629520629136	0.488682652759	0.309734945682	-0.99574
O	0.878116140944	0.741874502949	0.143470338862	-0.99415
O	0.865771852743	0.991613347045	0.259738521858	-0.99502
O	0.618871607143	0.74353710395	0.0971608424018	-0.99396
O	0.87864014764	0.499581224364	0.0925639564459	-0.9962
O	0.629087206507	0.752826961123	0.264960220757	-0.99476
O	0.874998459054	0.991784403227	0.175535160246	-0.99282
O	0.627812481728	0.742766790421	0.012959945078	-0.99472
O	0.867346388964	0.503370181479	0.00880929827423	-0.99441
O	0.619503064019	0.755519233459	0.180702413281	-0.996
C	0.732741531121	0.534330094725	0.143958402095	-0.07068
C	0.727505507754	0.518928327844	0.101533887681	-0.056
C	0.694569320231	0.513394086392	0.0845815067902	0.63837
C	0.984499432498	0.781682835187	0.31606845591	-0.06913
C	0.978867789297	0.768479357017	0.272800570311	-0.05694
C	0.944703957375	0.762469399693	0.257385766418	0.63258
C	0.512739446076	0.955323334637	0.31135294122	-0.07067
C	0.518231637039	0.971625314049	0.270540239317	-0.05581
C	0.551374811156	0.978983854656	0.25666322027	0.63725
C	0.761140293923	0.70770974897	0.146303136151	-0.06989
C	0.768095503704	0.723611057767	0.104253539092	-0.05548
C	0.802311444671	0.730086993934	0.0915064908829	0.63323
C	0.578802582448	0.606455451604	0.223518157934	-0.07182
C	0.598334341778	0.601656617618	0.185149044585	-0.05398
C	0.609088150843	0.568114614298	0.173559923494	0.63653
C	0.839581605077	0.855858680191	0.06458351099	-0.06982
C	0.8570536637	0.851607316216	0.0229474419064	-0.0556
C	0.852443479661	0.817045916369	0.333886895246	0.63208
C	0.659312817358	0.888331766681	0.0617749882063	-0.07153
C	0.646901504479	0.894274185895	0.0193398901586	-0.05618
C	0.641838528832	0.926184047349	0.339289126074	0.63665
C	0.917261970358	0.636573520916	0.227753752807	-0.0694
C	0.90105136412	0.641674621579	0.186001560147	-0.05605
C	0.892865787061	0.675991104266	0.172047057881	0.63295
C	0.540315531392	0.534113955386	0.022331347073	-0.07185
C	0.536063399568	0.525817066796	0.0691077181737	-0.05438
C	0.563535501404	0.52171770221	0.099545611437	0.63272
C	0.789302917003	0.781542878257	0.186041964403	-0.07009
C	0.78424570772	0.774622035431	0.232363982758	-0.0562
C	0.811568399508	0.773019887141	0.263733814276	0.6368
C	0.702828026339	0.965661108572	0.188341770464	-0.0709
C	0.709840611252	0.974342959125	0.233780171669	-0.05541
C	0.682162452482	0.973119562782	0.267147949206	0.63417
C	0.953594784997	0.708611240552	0.0255098443635	-0.07134
C	0.95959070559	0.722235312081	0.0694290180848	-0.05488
C	0.934034914225	0.723000428983	0.101994557838	0.63665
C	0.662193233287	0.579178129347	0.27210636307	-0.07136
C	0.65361482689	0.583698524609	0.317583076251	-0.05554
C	0.648884087278	0.558425923788	0.0148481500947	0.63343
C	0.91488956788	0.829558907171	0.107432815716	-0.07198
C	0.903062862258	0.834181566937	0.152119055122	-0.05589
C	0.902360452074	0.807860143205	0.184442238525	0.63773
C	0.585811717855	0.916246073511	0.109476531868	-0.07018
C	0.596022714082	0.909427344718	0.153356774335	-0.05684
C	0.596060712537	0.935786033544	0.186663598554	0.63384
C	0.833243493327	0.664180306347	0.269941872036	-0.07172
C	0.84373160356	0.659281360595	0.31559450645	-0.05426
C	0.847579725572	0.687464057014	0.0197982821338	0.63614
C	0.760535583849	0.958994995879	0.174168332701	-0.07147
C	0.767254163082	0.975459188484	0.215200083665	-0.05538
C	0.800481834554	0.980776708126	0.230585009099	0.6371
C	0.513272074427	0.708822752147	0.0114787558575	-0.07109
C	0.51829107233	0.724708331308	0.0549320482775	-0.05594
C	0.551683188792	0.731308357997	0.0695943089673	0.63853
C	0.984972078164	0.532731408118	0.00618744888758	-0.07096
C	0.978539237922	0.521024772957	0.0503284569373	-0.05585
C	0.944536712365	0.512114350341	0.0625345285538	0.63617
C	0.73060319247	0.788467503734	0.1762184363	-0.07079
C	0.725991969252	0.773429140548	0.220235492151	-0.05674
C	0.693700383624	0.764705288179	0.234795185927	0.63785
C	0.91259183258	0.886613208467	0.0933615762149	-0.0714
C	0.896431957725	0.892218858429	0.134001817844	-0.05345
C	0.888331944223	0.925648135103	0.147498148783	0.63631
C	0.657363766263	0.637479307707	0.259722201464	-0.07145
C	0.647279046861	0.642519125227	0.303516453992	-0.05614
C	0.639815956025	0.678111087123	0.98347697691	0.63866
C	0.840767186476	0.6074131824	0.251202534956	-0.07283
C	0.852541331524	0.601059500077	0.295061589338	-0.05483
C	0.853875991999	0.567919596217	0.980493288381	0.63793
C	0.584332734627	0.859207525954	0.0955913436135	-0.07056
C	0.600530991528	0.85229106742	0.13695104197	-0.05731
C	0.60715729544	0.818786867255	0.151542582161	0.63835
C	0.951841350297	0.966565362337	0.296850298761	-0.07147
C	0.958336011948	0.976116745086	0.252280876969	-0.05522
C	0.932195376034	0.971601009312	0.217425451922	0.63327
C	0.704798595231	0.71467177332	0.131095450175	-0.07024
C	0.711312525148	0.724477904488	0.0870877296998	-0.05471
C	0.685192870628	0.720514576094	0.0523439027718	0.63221
C	0.788853989849	0.538260894317	0.129717702934	-0.07122
C	0.783934500874	0.52432298771	0.0870195415483	-0.05511
C	0.811717369882	0.522299345267	0.0528585945884	0.63287
C	0.53912637753	0.788758985166	0.300718706781	-0.0707
C	0.534180368224	0.777277340401	0.255544921613	-0.05425
C	0.563744612108	0.774826279998	0.224151969088	0.63155
C	0.83482070811	0.912936900252	0.0471006415924	-0.06998
C	0.849467864387	0.907686735041	0.0035488300584	-0.0554
C	0.845631063537	0.93641731423	0.30321041319	0.63248
C	0.580466906477	0.663326977026	0.211637819234	-0.07119
C	0.596926333724	0.659262788069	0.170242424392	-0.05458
C	0.597724444679	0.687907312815	0.137681638482	0.63262
C	0.922432504735	0.579342229457	0.208914669418	-0.07036
C	0.908526146865	0.584621331878	0.166108459227	-0.05734
C	0.903251336435	0.555068823857	0.133932338398	0.63404
C	0.662556273233	0.831474922396	0.0447196844486	-0.0706
C	0.649777945146	0.836388361153	0.00202347696032	-0.05547
C	0.647582537385	0.807108111105	0.306812126688	0.63405
C	0.753919414678	0.512464082039	0.0750862759692	-0.08608
C	0.763124106631	0.543649362496	0.158043436685	-0.09011
C	0.502576929188	0.770661030437	0.240140840781	-0.08377
C	0.512419153738	0.794806540442	0.328948405173	-0.08979
C	0.492484146769	0.975924355887	0.239489850887	-0.08632
C	0.482921537255	0.941017658014	0.320666248555	-0.09007
C	0.742306742397	0.730651779647	0.0740782540317	-0.08524
C	0.730014194649	0.701668561343	0.157980586109	-0.09005
C	0.605256806053	0.628516661076	0.155685771029	-0.08669
C	0.570556404559	0.637648752077	0.23737978371	-0.09006
C	0.643545492715	0.866249463318	0.32479902741	-0.0856
C	0.66589364217	0.857140987677	0.0760861395749	-0.08952
C	0.504631020007	0.522262199071	0.0858519724391	-0.08494
C	0.515824052837	0.540512568942	0.994030807894	-0.0892
C	0.753661812597	0.768678958502	0.249110848073	-0.08543
C	0.761917525825	0.790741805624	0.159169136223	-0.09002
C	0.741960433558	0.980723855787	0.245370009089	-0.08525
C	0.728617233857	0.95684779515	0.15920828843	-0.08926
C	0.492689158148	0.727558643831	0.0852902994262	-0.08619
C	0.482525269345	0.702929000234	0.996995219313	-0.09036
C	0.639378553618	0.617563817972	0.995441498104	-0.08529
C	0.664202037494	0.606074572131	0.243555836845	-0.08866
C	0.607202773851	0.877727796205	0.165775126693	-0.0836
C	0.57796729508	0.891142200168	0.0814013453665	-0.08948
C	0.894468496058	0.866601910934	0.165342388874	-0.08689
C	0.918933994402	0.855961346458	0.0780477845741	-0.09045
C	0.846338552656	0.627362668813	0.00207763513484	-0.08703
C	0.832308594476	0.638431799694	0.239006056134	-0.09007
C	0.853261208812	0.875862391751	0.32096310475	-0.08495
C	0.82703651834	0.886818887727	0.0751616119024	-0.09004
C	0.897490894253	0.615476395736	0.153737648686	-0.08345
C	0.926146748808	0.604962658134	0.240762723557	-0.08977
Al	0.658112601731	0.489793030395	0.0164246819402	1.63644
Al	0.909111493932	0.740154199443	0.186254086394	1.63392
Al	0.589025305061	0.502671721036	0.185708203846	1.63512
Al	0.838735883084	0.754082854404	0.0190114357519	1.63399
Al	0.630501802448	0.532243724857	0.0994265812358	1.63546
Al	0.878653082558	0.781761079627	0.266257756918	1.63341
Al	0.61683705394	0.961171328853	0.268171479604	1.63441
Al	0.869143175995	0.7125009789	0.102337193483	1.63393
Al	0.83709962903	0.502709372354	0.968286857625	1.63364
Al	0.589218812005	0.754400027227	0.138076628306	1.63428
Al	0.90838435171	0.487325499411	0.132522772473	1.63382
Al	0.659642487724	0.742174970288	0.96928603228	1.63438
Al	0.865298399536	0.961318624459	0.218212341494	1.63309
Al	0.616999450506	0.712752254062	0.0536853456019	1.63246
Al	0.879247021212	0.531301804858	0.0509535447013	1.63427
Al	0.629460630488	0.783564385905	0.222735219857	1.63362
H	0.830918518187	0.835100827954	0.0862374110661	0.11101
H	0.918312097155	0.656346046605	0.251040186991	0.10995
H	0.921104960836	0.806297172589	0.0953705699337	0.11132
H	0.827112375509	0.68889999259	0.257002861019	0.11107
H	0.779542367563	0.951615391942	0.153276177591	0.11176
H	0.532776597614	0.697332056818	0.990885054308	0.11101
H	0.965351440243	0.536652721695	0.983872789056	0.11156
H	0.708997888669	0.792286663702	0.153333852657	0.11054
H	0.655321651404	0.655727143836	0.234753493769	0.11151
H	0.578479774787	0.839410888243	0.0729311408234	0.11152
H	0.92731210475	0.962796045054	0.307816494018	0.11079
H	0.681222813596	0.711866887194	0.143714806632	0.1106
H	0.813836053332	0.539543243549	0.14435527136	0.11035
H	0.563291674296	0.794822971575	0.313863727911	0.11102
H	0.571439106767	0.686350751655	0.221995241007	0.11068
H	0.668892911911	0.807146416548	0.0547712315967	0.11006
H	0.713109232932	0.540944036758	0.168523622624	0.11095
H	0.96504900346	0.786418139815	0.337295294418	0.10983
H	0.53416417032	0.94970550014	0.333523218067	0.11117
H	0.781089485886	0.698678996342	0.168552477393	0.11027
H	0.571534502447	0.586377217495	0.243718499138	0.11098
H	0.66092814487	0.907090589255	0.0873538466607	0.11099
H	0.564855630644	0.53611213653	0.00878842711005	0.1113
H	0.813842785574	0.780435789963	0.170414626831	0.1109
H	0.678458776602	0.965260018435	0.175970491717	0.11023
H	0.930292007759	0.700718279216	0.0163839234728	0.11134
H	0.665836699691	0.554758602758	0.259661633347	0.11091
H	0.583387708251	0.940897298039	0.0962369980093	0.11067
H	0.920031505104	0.906599233281	0.0736368430263	0.11061
H	0.840228625472	0.58933787092	0.226262774721	0.11157
H	0.828444814473	0.936005229715	0.0600883116662	0.11079
H	0.932634404322	0.556092331168	0.216248186792	0.11094
H	0.609795190553	0.988696517678	0.0565627582066	0.42035
H	0.860849894772	0.737166007128	0.222335085454	0.4184
H	0.636234206702	0.505333950671	0.225657560993	0.41889
H	0.887019880002	0.75805428515	0.0596031483055	0.41966
H	0.625425729161	0.98083357972	0.134381877874	0.41963
H	0.885037971259	0.737580713572	0.314045413828	0.41881
H	0.612814151463	0.505098965392	0.310848349787	0.41875
H	0.87009208761	0.762794998972	0.134982631211	0.41824
H	0.888186372109	0.502892526793	0.259360669236	0.41851
H	0.635702576021	0.758399578569	0.0951146251334	0.41879
H	0.8566596076	0.990047365557	0.093312094978	0.41928
H	0.610867370091	0.738214855509	0.260435548508	0.41835
H	0.863717966826	0.507288820842	0.170384677909	0.41836
H	0.615624299395	0.762161295456	0.0147611396718	0.41854
H	0.882648771338	0.985305782053	0.00746438648973	0.41949
H	0.634994933001	0.737903329697	0.17702706688	0.4202
H	0.750175708938	0.49817423893	0.0437174763228	0.12932
H	0.768326826951	0.552171126644	0.192164134353	0.10636
H	0.497990157427	0.760454753776	0.206896565273	0.12872
H	0.521543203056	0.795266164273	0.0259103392528	0.10669
H	0.496595994619	0.993163713608	0.210805789535	0.12985
H	0.471690322343	0.942682914343	0.02458710645	0.10632
H	0.747559881347	0.742357592277	0.0408773098058	0.1294
H	0.727687841341	0.691507571414	0.192712794846	0.10652
H	0.620768283046	0.624587686716	0.127299323696	0.12947
H	0.554169543671	0.641372632708	0.265767803079	0.10665
H	0.638449313827	0.869734100705	0.289778722771	0.12893
H	0.683002819625	0.853586972199	0.104517602154	0.10631
H	0.500745140372	0.517612545069	0.119775701238	0.12885
H	0.517983136087	0.551371061898	0.295422276112	0.10641
H	0.751447695414	0.758622845983	0.283146940917	0.12929
H	0.766151927974	0.797742030263	0.124870243234	0.10613
H	0.745521510312	0.99070640495	0.277630122232	0.1288
H	0.723458775964	0.944758877568	0.126777314717	0.10624
H	0.497489166091	0.734598500712	0.120138406226	0.12918
H	0.47355558797	0.696953506113	0.294161034852	0.10607
H	0.628627320683	0.621034640033	0.0279765143693	0.12943
H	0.668481612406	0.602942639551	0.20760382983	0.10639
H	0.614914013504	0.872673253041	0.199382143932	0.12877
H	0.565307079756	0.89547986704	0.0476389560717	0.10626
H	0.887109248218	0.871216085441	0.19826864281	0.12919
H	0.932618352223	0.853043788149	0.0445693455105	0.10608
H	0.85271857912	0.620663082224	0.0371469032516	0.12904
H	0.825677726884	0.642576848318	0.202765789793	0.10616
H	0.865253983168	0.873351244976	0.28824863664	0.12919
H	0.810378581573	0.890361124945	0.103731253475	0.10685
H	0.888516543561	0.619214508793	0.119286342706	0.12876
H	0.932804534476	0.600132626002	0.274246263378	0.1075
O	0.693190128635	0.489852517473	0.394487373578	-0.57949
O	0.672834971547	0.523146948789	0.44862075302	-0.58786
O	0.938718997413	0.738123444357	0.559257870578	-0.58313
O	0.920375764245	0.77271131393	0.611318081708	-0.60833
O	0.553661495808	0.00316408864926	0.559928622351	-0.57919
O	0.573402462559	0.971361089326	0.613715097112	-0.58673
O	0.806479537061	0.751973273553	0.392757012058	-0.58313
O	0.822050458776	0.716644600202	0.446098333359	-0.60827
O	0.631363386343	0.56349511556	0.476003099443	-0.5786
O	0.59904997606	0.545941947127	0.531533061555	-0.58742
O	0.878300700207	0.812279180002	0.644092357388	-0.58316
O	0.842874311291	0.794725363569	0.36034843361	-0.60786
O	0.611330800016	0.92986648099	0.644853485446	-0.57819
O	0.649030422907	0.949447763577	0.36606525513	-0.58814
O	0.866047053268	0.678233077393	0.473016912333	-0.5829
O	0.89993409998	0.697370713507	0.529191991717	-0.6082
O	0.561905232228	0.517117899461	0.476438182089	-0.5841
O	0.590693102782	0.54099190445	0.42193082664	-0.60808
O	0.807239425868	0.761182696291	0.640016950221	-0.5792
O	0.836483809684	0.787969696315	0.58719905636	-0.5859
O	0.687087505507	0.975076482983	0.641184714389	-0.58433
O	0.656281891833	0.948626137725	0.591433183332	-0.60826
O	0.938456163846	0.726348777526	0.473411736224	-0.58004
O	0.908471794654	0.700502475512	0.420722545143	-0.58639
O	0.644261254741	0.561057236282	0.392116612552	-0.584
O	0.667474093528	0.53217348777	0.674237829678	-0.60721
O	0.890879728055	0.810411858575	0.556295459727	-0.57959
O	0.916160656748	0.781197897827	0.504663125932	-0.58625
O	0.601814391865	0.930880520577	0.558563125728	-0.5843
O	0.579780386624	0.962901674109	0.504340696683	-0.60803
O	0.852818173015	0.680622998344	0.390468397055	-0.5791
O	0.828661719944	0.708935673582	0.670718185641	-0.58615
O	0.801893554216	0.000628165043693	0.592582560092	-0.57869
O	0.821745812709	0.964623480548	0.540609736782	-0.58724
O	0.556240384314	0.754115420539	0.42594231524	-0.5802
O	0.571910776562	0.720627591199	0.372032331608	-0.58631
O	0.936691247506	0.488422217324	0.425923948428	-0.578
O	0.921952176266	0.523676076432	0.373864409894	-0.58678
O	0.687186371569	0.73992262345	0.592509117766	-0.58008
O	0.671338619527	0.775566829649	0.539860744996	-0.58635
O	0.866846766884	0.925150685343	0.508528636103	-0.57985
O	0.899821289615	0.944761810264	0.456186861582	-0.58599
O	0.614790315779	0.680184144855	0.343711123261	-0.57962
O	0.649432342793	0.697184269135	0.619677159105	-0.58712
O	0.882010140487	0.563363158518	0.33909843184	-0.58046
O	0.846321227543	0.54354718987	0.622635426232	-0.58652
O	0.629554822018	0.813487406997	0.509269593677	-0.57992
O	0.595547133783	0.795713364449	0.454929108308	-0.58697
O	0.935168773661	0.976884503534	0.511293702288	-0.58396
O	0.905919739251	0.950425621794	0.561655414605	-0.6075
O	0.686569147572	0.72875339098	0.348904326492	-0.58308
O	0.655550234624	0.702763900976	0.399563073318	-0.60812
O	0.807929631325	0.516687989618	0.340375302873	-0.58353
O	0.837319063442	0.543645020632	0.39138463694	-0.6074
O	0.557076038736	0.767336454477	0.511660960346	-0.58239
O	0.587877449549	0.791926387802	0.564874805074	-0.6079
O	0.85544531368	0.92844507085	0.596832444562	-0.58254
O	0.829169476427	0.96121134094	0.313282034885	-0.60853
O	0.600292291778	0.682672717661	0.428635051565	-0.5832
O	0.578316121201	0.711402173161	0.482591228563	-0.60822
O	0.891169770691	0.562763075395	0.425889108472	-0.58326
O	0.916810951702	0.533354805743	0.479174802658	-0.60922
O	0.640934173212	0.811869877039	0.594092808084	-0.5844
O	0.665998915049	0.783624070808	0.317322631746	-0.6083
O	0.631684468473	0.499513160108	0.393371547582	-0.99602
O	0.879358679135	0.749514560467	0.558135146296	-0.99502
O	0.618111771344	0.991692237867	0.559394367311	-0.99548
O	0.866291884053	0.742079994644	0.391185275819	-0.99508
O	0.620248993955	0.502874557262	0.475341958024	-0.99661
O	0.86907847424	0.750090795343	0.641594627207	-0.99441
O	0.626773613832	0.490947016312	0.641658899889	-0.99574
O	0.877215550527	0.738561667823	0.475203838044	-0.99415
O	0.865294193579	0.989594090514	0.591279694262	-0.99502
O	0.614700626182	0.742887551425	0.430010913644	-0.99396
O	0.87729305675	0.502081160222	0.427200596882	-0.9962
O	0.628364409334	0.751820165332	0.593487518131	-0.99476
O	0.874195171183	0.986249919427	0.508701866815	-0.99282
O	0.627026370842	0.74203618754	0.346541860842	-0.99472
O	0.869054630473	0.50311109643	0.343203454848	-0.99441
O	0.617895190017	0.753801952905	0.512269877796	-0.996
C	0.735114924382	0.53951720011	0.476916553752	-0.07068
C	0.729369720032	0.524024567563	0.434432506134	-0.056
C	0.695750823927	0.51423602443	0.422086082255	0.63837
C	0.981923512605	0.787427669785	0.641647371685	-0.06913
C	0.976529770952	0.769766831797	0.60048614625	-0.05694
C	0.943348325859	0.762759267025	0.58530343918	0.63258
C	0.513247147429	0.955021634404	0.640058358558	-0.07067
C	0.516854084274	0.97162473481	0.599513928862	-0.05581
C	0.551223793829	0.980610787199	0.586378614919	0.63725
C	0.759125065401	0.708730788018	0.47774293337	-0.06989
C	0.765102081487	0.724492182026	0.43657037647	-0.05548
C	0.799970187977	0.728531549797	0.420350738221	0.63323
C	0.585752622139	0.606993078373	0.559859518638	-0.07182
C	0.600073969374	0.601618367724	0.517397097648	-0.05398
C	0.607988408202	0.568016223847	0.504267336933	0.63653
C	0.825408141663	0.854116529686	0.388519620852	-0.06982
C	0.841731765093	0.849663369908	0.345374948537	-0.0556
C	0.854888278226	0.816345167671	0.672663105081	0.63208
C	0.660583445778	0.885687116543	0.399019126321	-0.07153
C	0.651527244265	0.892526198973	0.353073108483	-0.05618
C	0.635415156975	0.923658001377	0.673640490452	0.63665
C	0.907599375819	0.634745868831	0.563267361694	-0.0694
C	0.895626688074	0.640548613643	0.518900001147	-0.05605
C	0.888543659243	0.673669261778	0.503670770841	0.63295
C	0.540754878761	0.541250955501	0.359716969729	-0.07185
C	0.536055167918	0.53018533381	0.40486520502	-0.05438
C	0.564842993133	0.526020405331	0.435504422376	0.63272
C	0.792152829659	0.781274701352	0.519477613016	-0.07009
C	0.785861808284	0.768260318202	0.56486779641	-0.0562
C	0.812191994165	0.771111910506	0.59899181293	0.6368
C	0.702986567138	0.954220726094	0.522462810972	-0.0709
C	0.707678021454	0.965734122196	0.567405676464	-0.05541
C	0.680295127322	0.965450358956	0.600402046271	0.63417
C	0.955892826257	0.706002629534	0.353150593847	-0.07134
C	0.961158382609	0.71961672101	0.396975539867	-0.05488
C	0.933634066996	0.717461816353	0.431736071776	0.63665
C	0.656106001254	0.578247878507	0.606538651305	-0.07136
C	0.650582990384	0.584728554664	0.652856935822	-0.05554
C	0.653512663723	0.555570089615	0.350365909734	0.63343
C	0.906155654163	0.826325426966	0.436168599967	-0.07198
C	0.897693524323	0.832187046887	0.482118815034	-0.05589
C	0.899483165132	0.805252508025	0.515214005884	0.63773
C	0.580518218895	0.914669254749	0.439272035441	-0.07018
C	0.594160968455	0.909085820247	0.483888993846	-0.05684
C	0.594438365665	0.936562317599	0.51693901353	0.63384
C	0.838332669278	0.662249488429	0.603695859343	-0.07172
C	0.846465822204	0.655656952926	0.648898388601	-0.05426
C	0.845332216373	0.686676693815	0.349610328723	0.63614
C	0.759512025879	0.964110698103	0.50483544968	-0.07147
C	0.766040554009	0.969898564281	0.551177689127	-0.05538
C	0.799722960393	0.97571068774	0.566368531559	0.6371
C	0.512193701663	0.710440493801	0.340540517821	-0.07109
C	0.517386479219	0.726336963581	0.382610595754	-0.05594
C	0.550087225016	0.731241685003	0.397798471882	0.63853
C	0.983435881032	0.531189335417	0.343146282829	-0.07096
C	0.977572146859	0.51933680297	0.38576478962	-0.05585
C	0.944000806632	0.513251627874	0.400410830338	0.63617
C	0.73490569479	0.784503821822	0.505460159852	-0.07079
C	0.728574905349	0.769841658488	0.548928203778	-0.05674
C	0.694185896185	0.762591115453	0.563774573735	0.63785
C	0.909979741925	0.883918260941	0.423676082006	-0.0714
C	0.898555340314	0.889388162433	0.466883165645	-0.05345
C	0.889483885067	0.921184963915	0.48055596257	0.63631
C	0.665402636951	0.634455512396	0.592105547538	-0.07145
C	0.650298307669	0.640977528569	0.635618415949	-0.05614
C	0.639704858904	0.675765895874	0.318365673473	0.63866
C	0.835702007678	0.604462459313	0.592119922807	-0.07283
C	0.847075641601	0.598809651916	0.636199192207	-0.05483
C	0.85991249312	0.568381683396	0.31016325121	0.63793
C	0.585024294506	0.857453276826	0.423108681309	-0.07056
C	0.599824347895	0.852451312711	0.467012254441	-0.05731
C	0.607066589419	0.818053705993	0.479544956515	0.63835
C	0.953325907681	0.955331297386	0.628866123488	-0.07147
C	0.958825688427	0.968653736604	0.584943777624	-0.05522
C	0.930314275273	0.967819370947	0.551650709683	0.63327
C	0.701900928434	0.707477026775	0.465148749143	-0.07024
C	0.707298988002	0.718709774228	0.421107051277	-0.05471
C	0.680321376603	0.720128032508	0.389957406742	0.63221
C	0.791575173461	0.535059088468	0.461493627675	-0.07122
C	0.78618372794	0.52520051222	0.416457913098	-0.05511
C	0.814009146973	0.524716744141	0.382793845632	0.63287
C	0.540643892336	0.784354569855	0.631428027116	-0.0707
C	0.53424656042	0.779097347316	0.584049354591	-0.05425
C	0.561838280474	0.776819836574	0.55308283449	0.63155
C	0.833829497807	0.911957679905	0.382000986982	-0.06998
C	0.843222888865	0.907718188334	0.334844704266	-0.0554
C	0.846086034649	0.934344679618	0.638670469236	0.63248
C	0.591609745951	0.66471519411	0.548982756677	-0.07119
C	0.598605306341	0.659478282185	0.503733670075	-0.05458
C	0.595675069763	0.687827594541	0.471148351972	0.63262
C	0.906843225925	0.576992992186	0.546968421342	-0.07036
C	0.89741081532	0.583269595995	0.502610075642	-0.05734
C	0.900504168926	0.557800396709	0.468388563966	0.63404
C	0.65660452976	0.828649631631	0.384749707493	-0.0706
C	0.648141786695	0.83462698437	0.340371869356	-0.05547
C	0.649208090493	0.80607751467	0.637457451839	0.63405
C	0.7541533637	0.519195939693	0.403241711957	-0.08608
C	0.766287362632	0.54568281027	0.488779373536	-0.09011
C	0.502196073187	0.772842974753	0.5691722347	-0.08377
C	0.514753610356	0.788511660663	0.661187464148	-0.08979
C	0.489744189951	0.977943921004	0.570657133459	-0.08632
C	0.482382470679	0.947062584694	0.655233372832	-0.09007
C	0.73928308475	0.729029431324	0.408286123984	-0.08524
C	0.72753700351	0.700258810159	0.49339438755	-0.09005
C	0.603496552845	0.627693321919	0.488266116243	-0.08669
C	0.584379556687	0.638444704396	0.57777432882	-0.09006
C	0.635701902691	0.863422002876	0.6574520287	-0.0856
C	0.665421296147	0.854402389149	0.413029292948	-0.08952
C	0.504499649028	0.524330433951	0.421570132238	-0.08494
C	0.514827092545	0.546193332567	0.331152494754	-0.0892
C	0.754760082393	0.761272178061	0.577559095701	-0.08543
C	0.766168822074	0.788436514889	0.49182806094	-0.09002
C	0.739780697435	0.972172115804	0.580926650984	-0.08525
C	0.728605579447	0.956809182404	0.490357437567	-0.08926
C	0.490561353578	0.734010181404	0.411456981203	-0.08619
C	0.480182894904	0.701732659107	0.328550634556	-0.09036
C	0.643388757589	0.615260975152	0.332262368158	-0.08529
C	0.667452377502	0.602631107463	0.577291606561	-0.08866
C	0.603366391574	0.877696655202	0.497200977302	-0.0836
C	0.577072806497	0.888966590697	0.410783642932	-0.08948
C	0.894228982169	0.864360879869	0.498520096603	-0.08689
C	0.914003076991	0.852663230528	0.408882192726	-0.09045
C	0.852541545213	0.62728858051	0.327517677424	-0.08703
C	0.830966347224	0.636074101369	0.57598980374	-0.09007
C	0.849332317237	0.874927022773	0.656284016128	-0.08495
C	0.823840208392	0.884349595333	0.407373304289	-0.09004
C	0.890085319057	0.614187625607	0.488731703296	-0.08345
C	0.912427065624	0.601749061584	0.57801827256	-0.08977
Al	0.66093310196	0.489265350908	0.351933206926	1.63644
Al	0.90787161906	0.738280235494	0.516213087844	1.63392
Al	0.590587775082	0.503962636232	0.517801256065	1.63512
Al	0.836457781772	0.752226874636	0.349576055424	1.63399
Al	0.631455958778	0.53152917388	0.43456697618	1.63546
Al	0.87914455664	0.780066057095	0.600450222243	1.63341
Al	0.614549857495	0.960233551395	0.602520947394	1.63441
Al	0.865820828082	0.70938940358	0.432153780657	1.63393
Al	0.838722449428	0.50388875283	0.299581480342	1.63364
Al	0.58677850966	0.754722298029	0.46963147505	1.63428
Al	0.907273866936	0.490347992372	0.469258773207	1.63382
Al	0.657822632475	0.742103644264	0.305416195872	1.63438
Al	0.865318228439	0.957576317654	0.551086432667	1.63309
Al	0.613972821	0.712377760471	0.386401314624	1.63246
Al	0.879667834152	0.532882881347	0.383277225285	1.63427
Al	0.628815560088	0.783093604176	0.55246960158	1.63362
H	0.816895225402	0.8340988246	0.408790570294	0.11101
H	0.910444534585	0.654001318852	0.590193157199	0.10995
H	0.904035502206	0.803607710779	0.420679206037	0.11132
H	0.829177743278	0.684219512444	0.593749348108	0.11107
H	0.778418250646	0.967234314535	0.479669092212	0.11176
H	0.531894443149	0.707405272617	0.318361356717	0.11101
H	0.962624055698	0.532712627869	0.318467847979	0.11156
H	0.715272447947	0.791983245831	0.481789920979	0.11054
H	0.671446548269	0.653155934073	0.568010289607	0.11151
H	0.58187467923	0.838361818385	0.40008893034	0.11152
H	0.930247249362	0.9453023403	0.636087184715	0.11079
H	0.679001815932	0.70038839218	0.475555391672	0.1106
H	0.816589091225	0.536824975013	0.475414991761	0.11035
H	0.565341029895	0.784558168025	0.643017700799	0.11102
H	0.592366708839	0.688836248492	0.564668845777	0.11068
H	0.661038619119	0.804985955618	0.397304220265	0.11006
H	0.715891564814	0.548845494172	0.497687484738	0.11095
H	0.961365900329	0.797525978677	0.661952436818	0.10983
H	0.535271576093	0.948773486457	0.662762547572	0.11117
H	0.779437371296	0.699662618836	0.498489458652	0.11027
H	0.575447835479	0.585585722351	0.578927025048	0.11098
H	0.665660228171	0.906758840643	0.422463352724	0.11099
H	0.565486327692	0.543415035865	0.34315501462	0.1113
H	0.816121824936	0.78579381088	0.507688394964	0.1109
H	0.678832566288	0.952498658263	0.508721813678	0.11023
H	0.931704725766	0.698789117753	0.344257634866	0.11134
H	0.651554726121	0.554535985444	0.594834718543	0.11091
H	0.570697972156	0.936835711354	0.428011215899	0.11067
H	0.918239147459	0.903171879104	0.401880505814	0.11061
H	0.826590956874	0.583186978245	0.573182302093	0.11157
H	0.829159004549	0.93580056457	0.396259950192	0.11079
H	0.913913549745	0.553067155638	0.555649752827	0.11094
H	0.608717447994	0.988742771741	0.394331522639	0.42035
H	0.861776273782	0.734786599653	0.560526305147	0.4184
H	0.638061283858	0.504591941353	0.559229786964	0.41889
H	0.886659777154	0.752494809075	0.39425917005	0.41966
H	0.633770029623	0.987894778044	0.483512782088	0.41963
H	0.880872668053	0.730003812039	0.639569692669	0.41881
H	0.612073890715	0.510208804206	0.642291548423	0.41875
H	0.859816330006	0.752336075751	0.486191525328	0.41824
H	0.884616586068	0.505748279188	0.593900575044	0.41851
H	0.631513132533	0.758037131708	0.421400850295	0.41879
H	0.8614398957	0.981740480191	0.421996971361	0.41928
H	0.606432399165	0.744386971755	0.604826529526	0.41835
H	0.86533976827	0.513524649893	0.517666324846	0.41836
H	0.609854124842	0.758530845667	0.342456943327	0.41854
H	0.876405829372	0.978447964375	0.349075077721	0.41949
H	0.630902244226	0.735071589881	0.50961811306	0.4202
H	0.751136118144	0.51300070081	0.367997147108	0.12932
H	0.771938307582	0.558337811256	0.518947334257	0.10636
H	0.496231034906	0.762556112509	0.535154053402	0.12872
H	0.516054712868	0.805127965844	0.363746540796	0.10669
H	0.493193858733	0.989405263868	0.538499568145	0.12985
H	0.480209335844	0.927732429099	0.352286836936	0.10632
H	0.743211223547	0.741155743123	0.376166783583	0.1294
H	0.725169116189	0.686682691739	0.524550228247	0.10652
H	0.612878351393	0.623646632244	0.456112881304	0.12947
H	0.581226848583	0.641962908705	0.613103544232	0.10665
H	0.629678862695	0.868132025614	0.623322157262	0.12893
H	0.678066563837	0.848760705623	0.444840538658	0.10631
H	0.500740406846	0.519095005197	0.457816457931	0.12885
H	0.515086897908	0.55879584359	0.62993553644	0.10641
H	0.750241624438	0.749889339007	0.609505704329	0.12929
H	0.770419949956	0.802321898703	0.460722754051	0.10613
H	0.744631717453	0.980158158463	0.616880071341	0.1288
H	0.724753247859	0.948911607909	0.455691902737	0.10624
H	0.49415163664	0.749401373558	0.44156293256	0.12918
H	0.478629492863	0.6903922197	0.627463695624	0.10607
H	0.634947781418	0.620635205517	0.367275900036	0.12943
H	0.673778397566	0.59557145316	0.543099446907	0.10639
H	0.615208577608	0.874011416469	0.531872615587	0.12877
H	0.567805477828	0.891880535566	0.378572599798	0.10626
H	0.886842778026	0.869362133206	0.533990961284	0.12919
H	0.923492667602	0.848449927577	0.374680359068	0.10608
H	0.86089019563	0.622452852484	0.363014516249	0.12904
H	0.818379406405	0.639009041354	0.545699113655	0.10616
H	0.856236640268	0.871120875475	0.620973240128	0.12919
H	0.811704997062	0.887148133996	0.439119027705	0.10685
H	0.883747291137	0.618217979657	0.453772928023	0.12876
H	0.920894754438	0.595201715474	0.613279803248	0.1075
O	0.687578097853	0.490396197578	0.727768986686	-0.57949
O	0.671674566715	0.526365726273	0.779265847259	-0.58786
O	0.93976287686	0.737581262865	0.891815475538	-0.58313
O	0.921074540326	0.769400898407	0.945849798681	-0.60833
O	0.552133642758	0.00324446668576	0.890664044326	-0.57919
O	0.572941386107	0.971031321083	0.94769881283	-0.58673
O	0.805783565476	0.751075086896	0.726106570361	-0.58313
O	0.821650918998	0.717556670906	0.782438117037	-0.60827
O	0.628394653183	0.564946326067	0.810865708339	-0.5786
O	0.597878795293	0.54600933083	0.865993506389	-0.58742
O	0.883861920089	0.811412247427	0.976783180484	-0.58316
O	0.843212190921	0.792513789776	0.69678759799	-0.60786
O	0.617285682138	0.933172814785	0.978205655263	-0.57819
O	0.64805865957	0.945709052534	0.697943199533	-0.58814
O	0.863373587491	0.677635617701	0.812548733911	-0.5829
O	0.899443196284	0.693801798619	0.865338971136	-0.6082
O	0.559233144549	0.516401047851	0.80760566551	-0.5841
O	0.587748500925	0.541535915919	0.754359927155	-0.60808
O	0.809779164362	0.765767389538	0.978258376173	-0.5792
O	0.83920370594	0.79005952829	0.924084846865	-0.5859
O	0.687513324087	0.984532976753	0.972562425257	-0.58433
O	0.658055998004	0.956029350249	0.923160526673	-0.60826
O	0.937690719902	0.725743116908	0.807689506486	-0.58004
O	0.906882923494	0.699044766498	0.757820713832	-0.58639
O	0.640340068634	0.562180382132	0.726346385974	-0.584
O	0.663944909651	0.532903820491	0.00326027742557	-0.60721
O	0.893782621555	0.809124010021	0.891734779943	-0.57959
O	0.915872409173	0.777810690799	0.837047349427	-0.58625
O	0.604639635867	0.932457178328	0.891781792477	-0.5843
O	0.581190129038	0.961894494226	0.838946300618	-0.60803
O	0.851196221681	0.677156141812	0.725496512413	-0.5791
O	0.83008641704	0.712903824207	0.00938786719689	-0.58615
O	0.803181803461	0.000353714295862	0.924829884987	-0.57869
O	0.824536826408	0.967386557225	0.869899711709	-0.58724
O	0.556675449105	0.755413877626	0.758154659584	-0.5802
O	0.573826884063	0.71884431803	0.707870536575	-0.58631
O	0.938723579764	0.486763756846	0.757191300343	-0.578
O	0.921851972054	0.521255179782	0.703473994453	-0.58678
O	0.689974775114	0.741267016634	0.92626130826	-0.58008
O	0.673033953119	0.774678191184	0.870798618854	-0.58635
O	0.866020719747	0.928151534304	0.839745156639	-0.57985
O	0.901600174052	0.945262919458	0.787163413298	-0.58599
O	0.616259966314	0.679427965198	0.674015729785	-0.57962
O	0.65146036277	0.699626324014	0.958551691456	-0.58712
O	0.878263515443	0.561027864983	0.677317902328	-0.58046
O	0.845497125691	0.544506036306	0.954904215673	-0.58652
O	0.628775473704	0.813772836172	0.841538467247	-0.57992
O	0.596925687726	0.797604513567	0.7867999598	-0.58697
O	0.937450044877	0.979571039428	0.844197207749	-0.58396
O	0.908528585445	0.951204446658	0.89537856989	-0.6075
O	0.687505445345	0.728384304757	0.678607672349	-0.58308
O	0.657984900881	0.703882979844	0.729095815539	-0.60812
O	0.807902183307	0.513256815722	0.677476165047	-0.58353
O	0.836206116892	0.538120825649	0.731212746392	-0.6074
O	0.557469181334	0.767922626512	0.842973037648	-0.58239
O	0.588434896065	0.790841490983	0.897702902168	-0.6079
O	0.853532874765	0.92856595197	0.926608831022	-0.58254
O	0.83011810849	0.959476737416	0.647497811675	-0.60853
O	0.605383119616	0.684162599919	0.761578936626	-0.5832
O	0.578235547605	0.713831838859	0.81491480399	-0.60822
O	0.890370325731	0.559474198394	0.760483126161	-0.58326
O	0.917198921572	0.530373110816	0.810512872023	-0.60922
O	0.642412988853	0.81304720245	0.927276585082	-0.5844
O	0.666591298271	0.782143321386	0.648269751559	-0.6083
O	0.629377538883	0.501425528461	0.723811513756	-0.99602
O	0.87829943421	0.749003777932	0.893429857007	-0.99502
O	0.616433060036	0.993843658484	0.893346462919	-0.99548
O	0.865808258147	0.73908385365	0.72520819727	-0.99508
O	0.619278672341	0.50343892829	0.80826890484	-0.99661
O	0.869779329008	0.752653217351	0.976143943992	-0.99441
O	0.628496308008	0.490012647725	0.976704916051	-0.99574
O	0.876077285735	0.7376263438	0.80963821515	-0.99415
O	0.866394197947	0.992508109168	0.924096987476	-0.99502
O	0.616775783693	0.742610419411	0.759845261017	-0.99396
O	0.878217651109	0.497811353535	0.757772271645	-0.9962
O	0.63060023017	0.751311867481	0.928467747324	-0.99476
O	0.877311494516	0.987488168074	0.840182066234	-0.99282
O	0.626930202734	0.741108734438	0.677559872342	-0.99472
O	0.867522695473	0.500509421057	0.677420648193	-0.99441
O	0.618659390076	0.752930947929	0.842837704137	-0.996
C	0.735268666844	0.53051335992	0.814895378028	-0.07068
C	0.728114938549	0.518083521457	0.770419444237	-0.056
C	0.693644158103	0.5124233343	0.756529081527	0.63837
C	0.982501509506	0.788241634144	0.972202531467	-0.06913
C	0.977172912971	0.771082624914	0.930951114119	-0.05694
C	0.944115391756	0.761134676959	0.918418761757	0.63258
C	0.510071806911	0.962344592963	0.980799472898	-0.07067
C	0.516494101716	0.97721615256	0.937015255338	-0.05581
C	0.550280839208	0.981188314551	0.922425442992	0.63725
C	0.757852377893	0.712140820693	0.814128448004	-0.06989
C	0.765374270603	0.724333719372	0.771046298	-0.05548
C	0.799057920124	0.729478107756	0.756366005674	0.63323
C	0.582669664699	0.608710525696	0.894893140381	-0.07182
C	0.594191520868	0.60198737661	0.850988785874	-0.05398
C	0.604939556042	0.56811458741	0.838145675228	0.63653
C	0.829027908341	0.854347324666	0.727109746086	-0.06982
C	0.844226930649	0.848861592684	0.686454565001	-0.0556
C	0.862311766582	0.817262316042	0.0078807985298	0.63208
C	0.654330853838	0.883898449181	0.731920375755	-0.07153
C	0.64360205126	0.890291994773	0.686571526836	-0.05618
C	0.639698434876	0.927136842613	0.00502020299083	0.63665
C	0.904992011647	0.630313337214	0.89823033257	-0.0694
C	0.893026015799	0.636489663146	0.853893819217	-0.05605
C	0.887071435026	0.671598119241	0.840749867333	0.63295
C	0.538713933545	0.536754607411	0.689755825889	-0.07185
C	0.533540551163	0.52621057311	0.735202290875	-0.05438
C	0.562434924099	0.526265121647	0.767185401796	0.63272
C	0.793083006924	0.786033741314	0.857214553547	-0.07009
C	0.786081241825	0.774807932452	0.903114400808	-0.0562
C	0.813670415505	0.774911110882	0.935950149768	0.6368
C	0.70657327738	0.958036405426	0.856663906323	-0.0709
C	0.710599718302	0.970107832084	0.900965220881	-0.05541
C	0.682213822141	0.973784066187	0.931420491249	0.63417
C	0.957492201731	0.699180557149	0.691469644627	-0.07134
C	0.96112673654	0.714161210605	0.733916294664	-0.05488
C	0.933318757021	0.714548848703	0.768769185963	0.63665
C	0.662667948748	0.581179303084	0.937444939148	-0.07136
C	0.649797798549	0.586468406315	0.98309326805	-0.05554
C	0.650943928376	0.557519639109	0.686029534023	0.63343
C	0.905169771071	0.824908756861	0.771144594356	-0.07198
C	0.898106649208	0.830812357955	0.816003905941	-0.05589
C	0.899060033031	0.803175128222	0.848852275983	0.63773
C	0.582426936755	0.916056087371	0.770945890384	-0.07018
C	0.594327646135	0.910499816094	0.816545400725	-0.05684
C	0.596775838933	0.937476228628	0.849414173274	0.63384
C	0.839096455654	0.666376794036	0.942704333739	-0.07172
C	0.846348010051	0.660231236791	0.988610406023	-0.05426
C	0.844576767094	0.68318867056	0.682411828953	0.63614
C	0.76290743898	0.950106159154	0.846119261436	-0.07147
C	0.768722422647	0.966558115573	0.886368602823	-0.05538
C	0.802309920909	0.976699611119	0.897752487808	0.6371
C	0.512575420456	0.713540619836	0.67385890837	-0.07109
C	0.518307387357	0.724162636679	0.717987872762	-0.05594
C	0.551305153045	0.730360926704	0.732615518553	0.63853
C	0.9835787721	0.535554815202	0.675003769035	-0.07096
C	0.978045779327	0.518740352536	0.717296464232	-0.05585
C	0.944483424518	0.509839205269	0.728953931069	0.63617
C	0.735860016495	0.788418699617	0.843246452679	-0.07079
C	0.728812589174	0.773334710369	0.886299588047	-0.05674
C	0.695089060534	0.766115092758	0.898956180728	0.63785
C	0.904847057909	0.881588821136	0.752683333782	-0.0714
C	0.89607952388	0.888148967253	0.798855752574	-0.05345
C	0.889480200567	0.921509401066	0.812111794927	0.63631
C	0.660610065331	0.639071546053	0.925154644175	-0.07145
C	0.644696496218	0.643638213652	0.966913343008	-0.05614
C	0.640660057055	0.675052219639	0.645644676661	0.63866
C	0.831679019911	0.61022448227	0.925802353959	-0.07283
C	0.843550829558	0.601850229298	0.969740808351	-0.05483
C	0.855872066227	0.566130840055	0.648099376346	0.63793
C	0.577464097421	0.858315438216	0.760909537149	-0.07056
C	0.595962233605	0.852855146609	0.802570065282	-0.05731
C	0.605647223677	0.819224216753	0.814778023846	0.63835
C	0.953549410644	0.955766478882	0.96226471206	-0.07147
C	0.958684715475	0.968632790517	0.919034336407	-0.05522
C	0.932402440188	0.969407913585	0.885430202124	0.63327
C	0.701786992956	0.713480223901	0.797610153293	-0.07024
C	0.707535743035	0.726401518543	0.754954883616	-0.05471
C	0.680417666867	0.723928959519	0.720905355136	0.63221
C	0.791441428295	0.53068069802	0.798287841864	-0.07122
C	0.785089114372	0.521631435413	0.751533989278	-0.05511
C	0.811908411327	0.521136611118	0.719256634994	0.63287
C	0.542128839888	0.779154512869	0.963184897045	-0.0707
C	0.535152826866	0.775051197868	0.916443646293	-0.05425
C	0.562968530416	0.775168838082	0.884098600363	0.63155
C	0.831766550256	0.911345092908	0.713937626192	-0.06998
C	0.845124419082	0.906857485786	0.671931818641	-0.0554
C	0.848880655828	0.934531699636	0.968758960302	0.63248
C	0.575876983017	0.665138108645	0.87631878554	-0.07119
C	0.593790521101	0.660496419592	0.836162093148	-0.05458
C	0.596535808539	0.689054396234	0.804802769634	0.63262
C	0.904341016697	0.573348103374	0.880789108405	-0.07036
C	0.894955160032	0.580053643563	0.835765503475	-0.05734
C	0.900273540135	0.554418668649	0.801618030847	0.63404
C	0.656022966267	0.82618240382	0.716503015814	-0.0706
C	0.64405848734	0.831371591575	0.672811720228	-0.05547
C	0.651685633766	0.809158715618	0.96845857224	0.63405
C	0.753731087796	0.51456794966	0.738132544342	-0.08608
C	0.765365693806	0.534626132215	0.82947461463	-0.09011
C	0.50384415388	0.769287792937	0.902026500783	-0.08377
C	0.518089811104	0.788643514938	0.991585340597	-0.08979
C	0.490096454855	0.980346780672	0.90549934527	-0.08632
C	0.478478053141	0.954342552689	0.992590772216	-0.09007
C	0.740078983569	0.7324163821	0.742104507061	-0.08524
C	0.726248292506	0.707116507071	0.828387462093	-0.09005
C	0.60154078291	0.628493963814	0.823305874884	-0.08669
C	0.573485871088	0.641055809183	0.90707601241	-0.09006
C	0.641911758739	0.86856657031	0.988599322109	-0.0856
C	0.662582193502	0.852649005226	0.744922122873	-0.08952
C	0.503556629075	0.517184523929	0.750070348429	-0.08494
C	0.512105537528	0.547261829444	0.663358540724	-0.0892
C	0.755271696798	0.767509663093	0.916818456148	-0.08543
C	0.768479777628	0.796299662704	0.830784226004	-0.09002
C	0.743117530297	0.975544648063	0.91603063028	-0.08525
C	0.732098838601	0.946301772383	0.831112399487	-0.08926
C	0.491869448828	0.727152858326	0.747817189182	-0.08619
C	0.481958593153	0.703483803884	0.660312699589	-0.09036
C	0.645971450453	0.616925965887	0.66793138409	-0.08529
C	0.666708518389	0.606933715086	0.908827205363	-0.08866
C	0.601147796853	0.878717470942	0.83179530698	-0.0836
C	0.572391936635	0.889473299596	0.744913828665	-0.08948
C	0.893865570939	0.862838441771	0.830006189052	-0.08689
C	0.90930169187	0.850282668361	0.739357906054	-0.09045
C	0.852719795161	0.625104040379	0.665147878173	-0.08703
C	0.830102533484	0.642172969743	0.912675132641	-0.09007
C	0.859229257658	0.876213266938	0.99074682589	-0.08495
C	0.824998897764	0.885172484496	0.742117000801	-0.09004
C	0.889407399245	0.611764502778	0.823239991219	-0.08345
C	0.908961629847	0.598225447576	0.911817414659	-0.08977
Al	0.658377521061	0.490389838386	0.684570193103	1.63644
Al	0.907705119847	0.736419273419	0.850859068476	1.63392
Al	0.588322246105	0.502591052052	0.850663528451	1.63512
Al	0.836890852437	0.750361675692	0.683293995925	1.63399
Al	0.629443756894	0.532947323243	0.766649826515	1.63546
Al	0.880870977958	0.779640700665	0.93486469587	1.63341
Al	0.615963094337	0.964099201413	0.935872921784	1.63441
Al	0.86452296133	0.708001790632	0.769500766489	1.63393
Al	0.837338692344	0.50257639278	0.635031345999	1.63364
Al	0.5877253313	0.755100836104	0.801049608952	1.63428
Al	0.907559628675	0.488340859787	0.800219026151	1.63382
Al	0.657269693125	0.739844243965	0.635585397564	1.63438
Al	0.866105187876	0.959285521585	0.882265135321	1.63309
Al	0.616340744151	0.711517027989	0.718277921266	1.63246
Al	0.8785612019	0.529539113782	0.7175329366	1.63427
Al	0.629914089572	0.78264594461	0.88464899733	1.63362
H	0.824073864572	0.83452809734	0.751290763348	0.11101
H	0.913598158716	0.650017902915	0.918448366255	0.10995
H	0.909678007943	0.801926356346	0.762215470039	0.11132
H	0.838365449885	0.69110796336	0.930440080519	0.11107
H	0.783310851679	0.945365013055	0.822105062168	0.11176
H	0.532391535427	0.712903514067	0.649139532442	0.11101
H	0.963558191941	0.541880671228	0.653014994927	0.11156
H	0.717117850967	0.796895032469	0.820929418019	0.11054
H	0.669843663809	0.65859834109	0.905423762179	0.11151
H	0.570990004253	0.838257529122	0.738873796685	0.11152
H	0.928854341963	0.949904320368	0.974070207073	0.11079
H	0.676065849606	0.706701863787	0.807526644362	0.1106
H	0.814113815021	0.535487376132	0.8067384492	0.11035
H	0.565982036953	0.779142764949	0.974679987885	0.11102
H	0.568625844114	0.688851401769	0.885322013573	0.11068
H	0.66393985739	0.803610950881	0.728761068656	0.11006
H	0.715365374897	0.537841170767	0.836055797981	0.11095
H	0.962238131859	0.796538683571	0.991088735532	0.10983
H	0.52660002473	0.964084634289	0.00773379395651	0.11117
H	0.776669575541	0.706463110838	0.83710396865	0.11027
H	0.577211365378	0.589293100379	0.916242019936	0.11098
H	0.662832514469	0.904382383535	0.755029735889	0.11099
H	0.562595305668	0.540714664992	0.676916757827	0.1113
H	0.81735175349	0.792794051774	0.847242737918	0.1109
H	0.684855154017	0.960081934702	0.839453291236	0.11023
H	0.935623850873	0.687057397981	0.681691720856	0.11134
H	0.671058361461	0.556772438632	0.92837310396	0.11091
H	0.579752873335	0.940569878617	0.757083343593	0.11067
H	0.913635512442	0.900931347207	0.730007302428	0.11061
H	0.825338860123	0.591397867309	0.903843880756	0.11157
H	0.829868575021	0.936469786685	0.729525615356	0.11079
H	0.913161867957	0.549671689653	0.892099988997	0.11094
H	0.608793848269	0.989114538092	0.726583576476	0.42035
H	0.867557885911	0.730819150655	0.905219329133	0.4184
H	0.632553626866	0.507479904918	0.894610494552	0.41889
H	0.884685815305	0.752557677339	0.7249757944	0.41966
H	0.629843988588	0.985192541093	0.80948042516	0.41963
H	0.885586761156	0.735109121585	0.981279993583	0.41881
H	0.612752860965	0.506001896597	0.980495352254	0.41875
H	0.860692152155	0.75368232986	0.815793988469	0.41824
H	0.883028357533	0.506555619005	0.922886304139	0.41851
H	0.634263205552	0.756698424087	0.758184022742	0.41879
H	0.859432615055	0.987531728117	0.761213967769	0.41928
H	0.612067334934	0.737690906355	0.927442655588	0.41835
H	0.865955679683	0.510250827545	0.847102917069	0.41836
H	0.612647685078	0.759466797365	0.679796069735	0.41854
H	0.886644261348	0.985757497139	0.670958103823	0.41949
H	0.63103318576	0.733278372897	0.84067409976	0.4202
H	0.748252844234	0.510764413866	0.703124154147	0.12932
H	0.768640219074	0.547308768813	0.862276694639	0.10636
H	0.498598397957	0.763375568164	0.865632158256	0.12872
H	0.520350044149	0.793126742107	0.694160599919	0.10669
H	0.494692015771	0.986743030667	0.870933772992	0.12985
H	0.480095359943	0.938937959073	0.689401524364	0.10632
H	0.744911228387	0.743042212129	0.709107929108	0.1294
H	0.721199298259	0.698524189851	0.863119630819	0.10652
H	0.606781730008	0.624672002467	0.786244653169	0.12947
H	0.561808672189	0.646496747305	0.940324240898	0.10665
H	0.631000748061	0.871573781191	0.955112253056	0.12893
H	0.668945723202	0.848648486618	0.7795040203	0.10631
H	0.50095135619	0.498038554443	0.776326148919	0.12885
H	0.518321324163	0.538480196516	0.957020129631	0.10641
H	0.753226440871	0.75814848609	0.950736516915	0.12929
H	0.773024670026	0.810709796228	0.799100114313	0.10613
H	0.746384660116	0.989106680458	0.946833043349	0.1288
H	0.727429232423	0.931210901671	0.802393581289	0.10624
H	0.495879882404	0.738515196873	0.780030068495	0.12918
H	0.477181028076	0.691515477757	0.964936256777	0.10607
H	0.644549872579	0.623095517847	0.703862745276	0.12943
H	0.673741907561	0.603013494476	0.874356333153	0.10639
H	0.609987781775	0.874436767243	0.867745127199	0.12877
H	0.560375520434	0.896012603758	0.71078395877	0.10626
H	0.887302846088	0.869066944928	0.864765196793	0.12919
H	0.915405879084	0.845939288953	0.703722882793	0.10608
H	0.862023606817	0.622293033794	0.698788857524	0.12904
H	0.821688093801	0.64685283025	0.88106463644	0.10616
H	0.863845861609	0.8692431254	0.954441834958	0.12919
H	0.813502242206	0.887359522909	0.77565532049	0.10685
H	0.8802751512	0.616895036416	0.790913619686	0.12876
H	0.917639025033	0.593151133119	0.946542928568	0.1075
