_cell_length_a 37.89577685548626
_cell_length_b 39.469369129422205
_cell_length_c 30.184265446492834
_cell_angle_alpha 92.35749640937567
_cell_angle_beta 89.99297451296144
_cell_angle_gamma 89.99699399098043
_symmetry_space_group_name_H-M         'P 1'
_symmetry_Int_Tables_number            1
loop_
_symmetry_equiv_pos_as_xyz
   'x, y, z'
                         
loop_
_atom_site_label
_atom_site_fract_x 
_atom_site_fract_y
_atom_site_fract_z
_atom_site_charge
Zn 0.0593178 0.0190503 0.148872 0.82244
Zn 0.0593258 0.269082 0.148788 0.82244
Zn 0.30932 0.01902 0.148835 0.82244
Zn 0.309328 0.269052 0.148752 0.82244
Zn 0.183402 0.0947008 0.0907688 0.82244
Zn 0.183407 0.344748 0.0907155 0.82244
Zn 0.433399 0.0946895 0.0907496 0.82244
Zn 0.433403 0.344736 0.0906956 0.82244
Zn 0.184319 0.231272 0.351711 0.82244
Zn 0.184326 0.48124 0.351795 0.82244
Zn 0.434318 0.231268 0.351696 0.82244
Zn 0.434325 0.481236 0.351778 0.82244
Zn 0.0583967 0.155614 0.409809 0.82244
Zn 0.0584008 0.405567 0.409862 0.82244
Zn 0.308399 0.155595 0.409778 0.82244
Zn 0.308403 0.405549 0.409832 0.82244
H 0.0475814 0.0943379 0.412224 0.31454
H 0.0475935 0.344283 0.412237 0.31454
H 0.297557 0.0943217 0.412178 0.31454
H 0.297571 0.344268 0.412193 0.31454
H 0.0234373 0.110341 0.370373 0.31454
H 0.0234396 0.360308 0.370409 0.31454
H 0.273431 0.110338 0.37032 0.31454
H 0.273434 0.360304 0.370358 0.31454
H 0.13015 0.0632477 0.157337 0.0983
H 0.130158 0.313273 0.157267 0.0983
H 0.380143 0.0632285 0.15731 0.0983
H 0.38015 0.313255 0.15724 0.0983
H 0.0664634 0.0388046 0.0485587 0.0983
H 0.0664702 0.288858 0.0484799 0.0983
H 0.316479 0.0387636 0.0485196 0.0983
H 0.316485 0.288815 0.0484415 0.0983
H 0.141433 0.129838 0.0307106 0.0983
H 0.141427 0.379902 0.0306782 0.0983
H 0.391432 0.129816 0.0306835 0.0983
H 0.391426 0.379877 0.0306497 0.0983
H 0.0969463 0.0717396 0.489487 0.0983
H 0.0969375 0.321672 0.489556 0.0983
H 0.346951 0.0717098 0.489457 0.0983
H 0.346943 0.321645 0.489525 0.0983
H 0.14376 0.0755282 0.492699 0.0983
H 0.143752 0.325454 0.49276 0.0983
H 0.393765 0.0755028 0.492667 0.0983
H 0.393757 0.325431 0.492729 0.0983
H 0.0757344 0.143956 0.141456 0.0983
H 0.07582 0.393934 0.141457 0.0983
H 0.325739 0.143929 0.141428 0.0983
H 0.325823 0.393906 0.141427 0.0983
H 0.0391552 0.158893 0.110853 0.0983
H 0.0391902 0.408846 0.110927 0.0983
H 0.289155 0.158861 0.110831 0.0983
H 0.289189 0.408815 0.110902 0.0983
H 0.0230953 0.218693 0.125643 0.31454
H 0.0230901 0.468648 0.125762 0.31454
H 0.27309 0.218664 0.125624 0.31454
H 0.273085 0.468619 0.12574 0.31454
H 0.0553564 0.225157 0.0879511 0.31454
H 0.055318 0.475133 0.0880341 0.31454
H 0.305344 0.225123 0.0879203 0.31454
H 0.305307 0.4751 0.0880009 0.31454
H 0.0633505 0.196931 0.177402 0.0983
H 0.063383 0.446882 0.177461 0.0983
H 0.31335 0.196903 0.177374 0.0983
H 0.313383 0.446855 0.17743 0.0983
H 0.0995401 0.206717 0.142219 0.0983
H 0.0995509 0.456711 0.142264 0.0983
H 0.349537 0.206692 0.142187 0.0983
H 0.349548 0.456685 0.142229 0.0983
H 0.0674216 0.174223 0.308402 0.0983
H 0.0674127 0.424225 0.308476 0.0983
H 0.317429 0.174207 0.308377 0.0983
H 0.31742 0.424208 0.308451 0.0983
H 0.0692455 0.110896 0.0608871 0.31454
H 0.0692283 0.360942 0.0608065 0.31454
H 0.319246 0.110867 0.0608582 0.31454
H 0.319229 0.360911 0.0607779 0.31454
H 0.14774 0.010234 0.271755 0.0983
H 0.147725 0.260248 0.271696 0.0983
H 0.397738 0.0102227 0.271724 0.0983
H 0.397724 0.260238 0.271665 0.0983
H 0.0753401 0.99802 0.308092 0.31454
H 0.0753221 0.248015 0.308005 0.31454
H 0.325335 0.998004 0.308054 0.31454
H 0.325317 0.247999 0.307967 0.31454
H 0.101387 0.102896 0.367944 0.0983
H 0.101387 0.35283 0.367962 0.0983
H 0.351379 0.102863 0.36793 0.0983
H 0.35138 0.352799 0.367948 0.0983
H 0.07223 0.11283 0.323012 0.0983
H 0.072243 0.362841 0.32305 0.0983
H 0.322245 0.112822 0.322986 0.0983
H 0.322257 0.362832 0.323025 0.0983
H 0.130887 0.198364 0.418383 0.0983
H 0.130907 0.448292 0.418456 0.0983
H 0.380887 0.198348 0.418364 0.0983
H 0.380907 0.448278 0.418436 0.0983
H 0.0714222 0.0458034 0.372543 0.0983
H 0.071347 0.295755 0.372444 0.0983
H 0.321378 0.0457813 0.372484 0.0983
H 0.321307 0.295734 0.37239 0.0983
H 0.0428472 0.0564591 0.327862 0.0983
H 0.0428162 0.306491 0.327756 0.0983
H 0.292834 0.056464 0.327783 0.0983
H 0.292805 0.306495 0.327683 0.0983
H 0.105556 0.196521 0.245742 0.0983
H 0.105566 0.446509 0.245819 0.0983
H 0.35557 0.196501 0.245719 0.0983
H 0.355578 0.446488 0.245796 0.0983
H 0.151497 0.201477 0.255484 0.0983
H 0.151505 0.451462 0.255575 0.0983
H 0.401508 0.201466 0.255471 0.0983
H 0.401514 0.45145 0.25556 0.0983
H 0.172568 0.155976 0.0883622 0.31454
H 0.172581 0.406031 0.0883482 0.31454
H 0.422556 0.155965 0.0883483 0.31454
H 0.422569 0.406018 0.0883318 0.31454
H 0.148433 0.139967 0.130224 0.31454
H 0.148436 0.390001 0.130187 0.31454
H 0.398426 0.13995 0.130212 0.31454
H 0.398429 0.389984 0.130172 0.31454
H 0.0051386 0.187037 0.343241 0.0983
H 0.00514598 0.437011 0.343311 0.0983
H 0.255148 0.18706 0.343225 0.0983
H 0.255156 0.437035 0.343295 0.0983
H 0.191467 0.21152 0.452024 0.0983
H 0.191474 0.461467 0.452102 0.0983
H 0.441441 0.21149 0.452001 0.0983
H 0.441448 0.46144 0.452078 0.0983
H 0.0164392 0.120495 0.469852 0.0983
H 0.0164339 0.370432 0.469884 0.0983
H 0.266431 0.120474 0.469839 0.0983
H 0.266426 0.370411 0.469872 0.0983
H 0.22194 0.178574 0.011083 0.0983
H 0.221931 0.42864 0.0110147 0.0983
H 0.471926 0.178569 0.0110759 0.0983
H 0.471918 0.428633 0.0110081 0.0983
H 0.0187581 0.1748 0.00788386 0.0983
H 0.0187501 0.424874 0.00782349 0.0983
H 0.268755 0.174784 0.00786189 0.0983
H 0.268747 0.424857 0.0078009 0.0983
H 0.200746 0.106362 0.359114 0.0983
H 0.200832 0.356384 0.359113 0.0983
H 0.450765 0.106354 0.359088 0.0983
H 0.450848 0.356376 0.35909 0.0983
H 0.164159 0.0914344 0.389721 0.0983
H 0.164194 0.341481 0.389647 0.0983
H 0.414168 0.0914361 0.389684 0.0983
H 0.414202 0.341481 0.389615 0.0983
H 0.148092 0.0316339 0.374935 0.31454
H 0.148088 0.281679 0.374817 0.31454
H 0.39809 0.0316362 0.374893 0.31454
H 0.398085 0.281681 0.37478 0.31454
H 0.180346 0.0251696 0.412628 0.31454
H 0.180308 0.275194 0.412546 0.31454
H 0.43033 0.0251708 0.412603 0.31454
H 0.430293 0.275194 0.412525 0.31454
H 0.188356 0.0533882 0.323172 0.0983
H 0.188389 0.303437 0.323114 0.0983
H 0.43837 0.0533819 0.323148 0.0983
H 0.438403 0.30343 0.323093 0.0983
H 0.22454 0.0435955 0.358349 0.0983
H 0.224552 0.293602 0.358305 0.0983
H 0.474545 0.043582 0.358338 0.0983
H 0.474556 0.293589 0.358298 0.0983
H 0.192423 0.0760848 0.19217 0.0983
H 0.192414 0.326083 0.192096 0.0983
H 0.442392 0.0760426 0.192141 0.0983
H 0.442382 0.326041 0.192067 0.0983
H 0.194242 0.139421 0.439691 0.31454
H 0.194225 0.389376 0.439772 0.31454
H 0.444241 0.139415 0.439669 0.31454
H 0.444224 0.389372 0.439749 0.31454
H 0.0227417 0.240106 0.22879 0.0983
H 0.0227272 0.490092 0.228849 0.0983
H 0.272736 0.240066 0.228795 0.0983
H 0.272722 0.490051 0.228854 0.0983
H 0.200334 0.25229 0.192487 0.31454
H 0.200316 0.502295 0.192575 0.31454
H 0.450328 0.252279 0.192467 0.31454
H 0.450311 0.502283 0.192553 0.31454
H 0.226381 0.147427 0.132605 0.0983
H 0.226382 0.397492 0.132588 0.0983
H 0.476374 0.147423 0.132581 0.0983
H 0.476375 0.397487 0.132562 0.0983
H 0.197239 0.137475 0.177553 0.0983
H 0.197252 0.387465 0.177515 0.0983
H 0.447241 0.137456 0.177531 0.0983
H 0.447253 0.387446 0.177491 0.0983
H 0.00586653 0.0519163 0.0822039 0.0983
H 0.00588701 0.301988 0.0821301 0.0983
H 0.255898 0.0519472 0.082175 0.0983
H 0.255918 0.302018 0.0821017 0.0983
H 0.196389 0.204514 0.128051 0.0983
H 0.196316 0.454562 0.128148 0.0983
H 0.446363 0.204504 0.128049 0.0983
H 0.446292 0.454552 0.128142 0.0983
H 0.167836 0.193838 0.172754 0.0983
H 0.167806 0.443807 0.172858 0.0983
H 0.417825 0.193814 0.172761 0.0983
H 0.417796 0.443783 0.172859 0.0983
H 0.230557 0.0537858 0.254821 0.0983
H 0.230566 0.303798 0.254745 0.0983
H 0.480539 0.05377 0.254808 0.0983
H 0.480547 0.303783 0.254732 0.0983
H 0.0264865 0.0488553 0.245127 0.0983
H 0.0264947 0.29887 0.245036 0.0983
H 0.276497 0.0488226 0.245063 0.0983
H 0.276504 0.298838 0.244974 0.0983
C 0.122611 0.0574727 0.123327 0.25189
C 0.122618 0.307509 0.123255 0.25189
C 0.372611 0.0574491 0.123298 0.25189
C 0.372618 0.307485 0.123226 0.25189
C 0.0903649 0.0436872 0.0673723 -0.09298
C 0.0903717 0.293737 0.0672948 -0.09298
C 0.340377 0.0436519 0.067337 -0.09298
C 0.340384 0.2937 0.0672602 -0.09298
C 0.119352 0.0612871 0.0528959 0.18052
C 0.119358 0.311343 0.0528264 0.18052
C 0.36936 0.0612625 0.0528667 0.18052
C 0.369365 0.311317 0.0527974 0.18052
C 0.107068 0.136265 0.47648 0.6158
C 0.107064 0.38619 0.47652 0.6158
C 0.357066 0.136236 0.476449 0.6158
C 0.357063 0.386164 0.47649 0.6158
C 0.115377 0.119953 0.0196049 0.04907
C 0.115375 0.370017 0.019559 0.04907
C 0.365377 0.119928 0.0195766 0.04907
C 0.365375 0.36999 0.0195298 0.04907
C 0.119056 0.0810803 0.0112857 -0.30643
C 0.119062 0.331146 0.0112236 -0.30643
C 0.369061 0.0810559 0.0112568 -0.30643
C 0.369066 0.331119 0.0111945 -0.30643
C 0.0673782 0.163713 0.118441 -0.30643
C 0.067415 0.413694 0.118473 -0.30643
C 0.317378 0.163684 0.118414 -0.30643
C 0.317414 0.413665 0.118444 -0.30643
C 0.0714828 0.198785 0.142218 0.12371
C 0.0715 0.448759 0.142274 0.12371
C 0.32148 0.198758 0.142188 0.12371
C 0.321498 0.448731 0.142242 0.12371
C 0.120432 0.196445 0.313832 0.18052
C 0.120426 0.446439 0.313913 0.18052
C 0.370436 0.196436 0.313813 0.18052
C 0.37043 0.446429 0.313892 0.18052
C 0.0906406 0.180172 0.328091 -0.09298
C 0.0906339 0.430166 0.328165 -0.09298
C 0.340647 0.180156 0.328068 -0.09298
C 0.340641 0.43015 0.328141 -0.09298
C 0.111039 0.00698381 0.218699 0.6158
C 0.111039 0.257001 0.218623 0.6158
C 0.361038 0.00696021 0.218667 0.6158
C 0.361038 0.256978 0.218592 0.6158
C 0.121566 0.998539 0.26507 0.04907
C 0.121555 0.248551 0.264996 0.04907
C 0.371566 0.998524 0.26504 0.04907
C 0.371555 0.248535 0.264968 0.04907
C 0.0888579 0.159094 0.076437 0.57738
C 0.0888585 0.409121 0.0764336 0.57738
C 0.338854 0.159068 0.0764066 0.57738
C 0.338854 0.409093 0.0764014 0.57738
C 0.0747206 0.0984204 0.353679 0.12371
C 0.0747182 0.348393 0.353686 0.12371
C 0.324716 0.0984029 0.353647 0.12371
C 0.324714 0.348376 0.353657 0.12371
C 0.122468 0.194267 0.384364 0.25189
C 0.122479 0.444219 0.384437 0.25189
C 0.372471 0.19425 0.384343 0.25189
C 0.372482 0.444203 0.384416 0.25189
C 0.0696346 0.0605252 0.342001 -0.30643
C 0.0695979 0.310514 0.341931 -0.30643
C 0.319616 0.0605128 0.341947 -0.30643
C 0.319581 0.310502 0.341881 -0.30643
C 0.12515 0.209565 0.268027 -0.30643
C 0.125156 0.459554 0.268108 -0.30643
C 0.375157 0.209551 0.268007 -0.30643
C 0.375163 0.45954 0.268087 -0.30643
C 0.0963443 0.0466455 0.309236 0.57738
C 0.0963148 0.296645 0.309167 0.57738
C 0.346337 0.0466303 0.309198 0.57738
C 0.346309 0.29663 0.309132 0.57738
C 0.997594 0.19282 0.37725 0.25189
C 0.997601 0.442784 0.377322 0.25189
C 0.247611 0.192839 0.377237 0.25189
C 0.247618 0.442803 0.37731 0.25189
C 0.215368 0.206633 0.433202 -0.09298
C 0.215374 0.456584 0.43328 -0.09298
C 0.465352 0.206622 0.433192 -0.09298
C 0.465358 0.456576 0.433269 -0.09298
C 0.244352 0.189025 0.447669 0.18052
C 0.244358 0.43897 0.447738 0.18052
C 0.494341 0.189027 0.447667 0.18052
C 0.494346 0.438974 0.447736 0.18052
C 0.23207 0.114047 0.0240832 0.6158
C 0.232067 0.364121 0.0240426 0.6158
C 0.482068 0.114044 0.024069 0.6158
C 0.482065 0.364115 0.0240273 0.6158
C 0.240375 0.130359 0.480956 0.04907
C 0.240373 0.380297 0.481002 0.04907
C 0.490372 0.130355 0.48094 0.04907
C 0.49037 0.380296 0.480987 0.04907
C 0.244052 0.169231 0.489278 -0.30643
C 0.244058 0.419167 0.48934 -0.30643
C 0.494042 0.169227 0.48927 -0.30643
C 0.494047 0.419165 0.489332 -0.30643
C 0.192382 0.0866079 0.38213 -0.30643
C 0.192419 0.336627 0.382098 -0.30643
C 0.442392 0.0866033 0.382104 -0.30643
C 0.442428 0.336622 0.382076 -0.30643
C 0.196485 0.0515339 0.358355 0.12371
C 0.196502 0.30156 0.358299 0.12371
C 0.446491 0.051527 0.358334 0.12371
C 0.446509 0.301553 0.358282 0.12371
C 0.245433 0.0538566 0.186727 0.18052
C 0.245427 0.303863 0.186647 0.18052
C 0.49542 0.0538519 0.186718 0.18052
C 0.495414 0.303859 0.186639 0.18052
C 0.215644 0.0701364 0.172476 -0.09298
C 0.215637 0.320143 0.172402 -0.09298
C 0.465622 0.0701096 0.172457 -0.09298
C 0.465615 0.320116 0.172383 -0.09298
C 0.236038 0.243324 0.281865 0.6158
C 0.236038 0.493306 0.28194 0.6158
C 0.486038 0.243309 0.281845 0.6158
C 0.486038 0.493291 0.281919 0.6158
C 0.496557 0.251755 0.23547 0.04907
C 0.496547 0.501743 0.235542 0.04907
C 0.246563 0.251765 0.23549 0.04907
C 0.246552 0.501753 0.235563 0.04907
C 0.213856 0.0912213 0.424132 0.57738
C 0.213857 0.341195 0.424136 0.57738
C 0.463858 0.0912157 0.424113 0.57738
C 0.463859 0.341191 0.42412 0.57738
C 0.199717 0.151892 0.146891 0.12371
C 0.199715 0.401919 0.146883 0.12371
C 0.44971 0.15188 0.146873 0.12371
C 0.449709 0.401906 0.146863 0.12371
C 0.99745 0.056027 0.116225 0.25189
C 0.997461 0.306075 0.116151 0.25189
C 0.247477 0.0560438 0.116197 0.25189
C 0.247488 0.306092 0.116123 0.25189
C 0.194619 0.189784 0.158589 -0.30643
C 0.194584 0.439795 0.158657 -0.30643
C 0.444605 0.189769 0.158584 -0.30643
C 0.444571 0.43978 0.158648 -0.30643
C 0.250149 0.040738 0.23253 -0.30643
C 0.250155 0.290749 0.232449 -0.30643
C 0.500137 0.0407286 0.232517 -0.30643
C 0.500142 0.290741 0.232438 -0.30643
C 0.221336 0.203662 0.191335 0.57738
C 0.221307 0.453662 0.191403 0.57738
C 0.471327 0.203649 0.191324 0.57738
C 0.471299 0.453649 0.191389 0.57738
N 0.0482047 0.110495 0.385651 -0.64634
N 0.0482103 0.360454 0.385678 -0.64634
N 0.298194 0.110482 0.385608 -0.64634
N 0.2982 0.360441 0.385637 -0.64634
N 0.0919896 0.178652 0.372413 -0.44443
N 0.091993 0.428619 0.372483 -0.44443
N 0.341996 0.178631 0.372389 -0.44443
N 0.342 0.428598 0.372458 -0.44443
N 0.09242 0.0415583 0.111552 -0.44443
N 0.0924282 0.291595 0.111473 -0.44443
N 0.342428 0.0415229 0.111517 -0.44443
N 0.342436 0.291559 0.111439 -0.44443
N 0.139696 0.0697189 0.0883251 -0.44443
N 0.139701 0.319767 0.088259 -0.44443
N 0.389696 0.0697018 0.0883001 -0.44443
N 0.3897 0.319749 0.0882341 -0.44443
N 0.0497923 0.224551 0.121833 -0.64634
N 0.0497809 0.474518 0.121922 -0.64634
N 0.299786 0.22452 0.121804 -0.64634
N 0.299776 0.474488 0.121891 -0.64634
N 0.140439 0.205644 0.349264 -0.44443
N 0.140446 0.455611 0.349344 -0.44443
N 0.390441 0.205634 0.349247 -0.44443
N 0.390447 0.455602 0.349325 -0.44443
N 0.0884218 0.128751 0.053359 -0.43464
N 0.0884113 0.378798 0.0533081 -0.43464
N 0.338421 0.128724 0.0533301 -0.43464
N 0.33841 0.378769 0.0532785 -0.43464
N 0.0958232 0.013143 0.2969 -0.43464
N 0.0958023 0.263145 0.29682 -0.43464
N 0.34582 0.0131268 0.296866 -0.43464
N 0.345799 0.263129 0.296788 -0.43464
N 0.173199 0.139817 0.114933 -0.64634
N 0.173205 0.389859 0.114906 -0.64634
N 0.423191 0.139804 0.114918 -0.64634
N 0.423197 0.389845 0.114888 -0.64634
N 0.216998 0.0716622 0.128155 -0.44443
N 0.217001 0.321695 0.128085 -0.44443
N 0.466995 0.0716556 0.128139 -0.44443
N 0.466998 0.321688 0.12807 -0.44443
N 0.217423 0.208762 0.389022 -0.44443
N 0.217431 0.458725 0.389101 -0.44443
N 0.467423 0.208766 0.389016 -0.44443
N 0.467431 0.458731 0.389093 -0.44443
N 0.0146819 0.180592 0.412256 -0.44443
N 0.0146866 0.430544 0.412322 -0.44443
N 0.264694 0.180587 0.412234 -0.44443
N 0.264699 0.430539 0.4123 -0.44443
N 0.174788 0.0257733 0.378747 -0.64634
N 0.174777 0.275806 0.378658 -0.64634
N 0.424783 0.025772 0.378719 -0.64634
N 0.424773 0.275804 0.378634 -0.64634
N 0.0154366 0.0446831 0.151327 -0.44443
N 0.0154434 0.294715 0.151248 -0.44443
N 0.265444 0.0446597 0.151291 -0.44443
N 0.265451 0.294692 0.151212 -0.44443
N 0.213419 0.121565 0.447211 -0.43464
N 0.213409 0.371518 0.447263 -0.43464
N 0.463418 0.121559 0.447193 -0.43464
N 0.463408 0.371514 0.447245 -0.43464
N 0.220818 0.237165 0.20367 -0.43464
N 0.220797 0.487163 0.203749 -0.43464
N 0.470811 0.237154 0.203652 -0.43464
N 0.470791 0.487151 0.203729 -0.43464
O 0.0777531 0.15113 0.471324 -0.59613
O 0.0777557 0.401067 0.471371 -0.59613
O 0.327751 0.151099 0.471293 -0.59613
O 0.327754 0.401038 0.471341 -0.59613
O 0.127961 0.131035 0.442304 -0.58866
O 0.127945 0.380942 0.442337 -0.58866
O 0.377962 0.131011 0.442274 -0.58866
O 0.377947 0.380921 0.442308 -0.58866
O 0.0794007 0.0154944 0.210644 -0.59613
O 0.0794052 0.265523 0.210562 -0.59613
O 0.329397 0.0154601 0.210609 -0.59613
O 0.329401 0.265489 0.210528 -0.59613
O 0.108988 0.183912 0.0631089 -0.58866
O 0.108983 0.433951 0.0631322 -0.58866
O 0.358979 0.183887 0.0630752 -0.58866
O 0.358974 0.433925 0.0630957 -0.58866
O 0.133397 0.00197723 0.185961 -0.58866
O 0.133403 0.251996 0.185891 -0.58866
O 0.383397 0.00195535 0.185931 -0.58866
O 0.383403 0.251975 0.185861 -0.58866
O 0.119627 0.0670192 0.291794 -0.58866
O 0.119591 0.317028 0.29173 -0.58866
O 0.369621 0.0670038 0.291759 -0.58866
O 0.369587 0.317013 0.291699 -0.58866
O 0.202755 0.0991877 0.0292494 -0.59613
O 0.202758 0.34925 0.029202 -0.59613
O 0.452755 0.0991802 0.0292321 -0.59613
O 0.452758 0.34924 0.029184 -0.59613
O 0.00297445 0.119281 0.0582599 -0.58866
O 0.00295906 0.369374 0.0582278 -0.58866
O 0.252966 0.119271 0.05825 -0.58866
O 0.252951 0.369363 0.0582168 -0.58866
O 0.204397 0.234827 0.289933 -0.59613
O 0.204401 0.484799 0.290015 -0.59613
O 0.454397 0.234817 0.289918 -0.59613
O 0.454402 0.484787 0.289998 -0.59613
O 0.483984 0.0663953 0.43744 -0.58866
O 0.48398 0.316358 0.437422 -0.58866
O 0.233984 0.0664008 0.437455 -0.58866
O 0.23398 0.316362 0.437433 -0.58866
O 0.00840445 0.248318 0.314589 -0.58866
O 0.00841047 0.498299 0.314659 -0.58866
O 0.258397 0.248327 0.314594 -0.58866
O 0.258403 0.498308 0.314664 -0.58866
O 0.494607 0.183272 0.208762 -0.58866
O 0.494573 0.433262 0.208821 -0.58866
O 0.244619 0.183285 0.20877 -0.58866
O 0.244584 0.433276 0.208832 -0.58866
Zn 0.0593127 0.019076 0.648771 0.82244
Zn 0.0593046 0.269044 0.648855 0.82244
Zn 0.309315 0.0190446 0.648734 0.82244
Zn 0.309307 0.269012 0.648817 0.82244
Zn 0.183402 0.0946627 0.590616 0.82244
Zn 0.183397 0.344615 0.59067 0.82244
Zn 0.433398 0.0946492 0.590594 0.82244
Zn 0.433394 0.344603 0.590648 0.82244
Zn 0.184314 0.231248 0.851813 0.82244
Zn 0.184306 0.48128 0.85173 0.82244
Zn 0.434313 0.231246 0.851798 0.82244
Zn 0.434305 0.481278 0.851717 0.82244
Zn 0.0583959 0.155653 0.909961 0.82244
Zn 0.0583914 0.4057 0.909908 0.82244
Zn 0.308399 0.155636 0.909933 0.82244
Zn 0.308394 0.405683 0.909879 0.82244
H 0.0478317 0.0943307 0.912384 0.31454
H 0.0478188 0.344386 0.912371 0.31454
H 0.29781 0.0943161 0.912342 0.31454
H 0.297796 0.34437 0.912326 0.31454
H 0.0234515 0.110294 0.870718 0.31454
H 0.023449 0.360328 0.870682 0.31454
H 0.273446 0.110291 0.870669 0.31454
H 0.273443 0.360325 0.87063 0.31454
H 0.130158 0.0632365 0.657174 0.0983
H 0.13015 0.313211 0.657245 0.0983
H 0.38015 0.0632166 0.657146 0.0983
H 0.380143 0.313191 0.657216 0.0983
H 0.0663759 0.0388763 0.548458 0.0983
H 0.0663691 0.288823 0.548537 0.0983
H 0.316391 0.0388313 0.548418 0.0983
H 0.316385 0.28878 0.548496 0.0983
H 0.14145 0.129969 0.53077 0.0983
H 0.141455 0.379905 0.530802 0.0983
H 0.391449 0.129943 0.53074 0.0983
H 0.391455 0.379881 0.530773 0.0983
H 0.0971436 0.071548 0.989551 0.0983
H 0.0971521 0.321615 0.989483 0.0983
H 0.347149 0.0715216 0.989522 0.0983
H 0.347157 0.321587 0.989454 0.0983
H 0.143929 0.0754926 0.992911 0.0983
H 0.143936 0.325566 0.99285 0.0983
H 0.393934 0.075471 0.992882 0.0983
H 0.393941 0.325542 0.992821 0.0983
H 0.0760097 0.143961 0.641502 0.0983
H 0.0759252 0.393983 0.641502 0.0983
H 0.326016 0.143933 0.641472 0.0983
H 0.325933 0.393955 0.641473 0.0983
H 0.03931 0.158789 0.611035 0.0983
H 0.0392753 0.408836 0.610961 0.0983
H 0.289311 0.158756 0.611011 0.0983
H 0.289277 0.408802 0.61094 0.0983
H 0.0231112 0.218594 0.625826 0.31454
H 0.0231168 0.468639 0.625708 0.31454
H 0.273107 0.218563 0.625804 0.31454
H 0.273112 0.468608 0.625689 0.31454
H 0.0553055 0.225095 0.588056 0.31454
H 0.0553441 0.475119 0.587973 0.31454
H 0.305294 0.225061 0.588022 0.31454
H 0.305332 0.475084 0.587941 0.31454
H 0.0634512 0.196892 0.677498 0.0983
H 0.0634198 0.446941 0.677439 0.0983
H 0.313455 0.196864 0.677466 0.0983
H 0.313422 0.446912 0.67741 0.0983
H 0.0995954 0.206769 0.642285 0.0983
H 0.0995854 0.456776 0.64224 0.0983
H 0.349594 0.206743 0.642248 0.0983
H 0.349584 0.45675 0.642206 0.0983
H 0.0673201 0.174357 0.808563 0.0983
H 0.0673288 0.424355 0.808489 0.0983
H 0.317327 0.174343 0.80854 0.0983
H 0.317336 0.424341 0.808466 0.0983
H 0.0691906 0.111053 0.560665 0.31454
H 0.0692079 0.361007 0.560745 0.31454
H 0.319192 0.111022 0.560636 0.31454
H 0.31921 0.360977 0.560716 0.31454
H 0.147708 0.0103008 0.771728 0.0983
H 0.147722 0.260286 0.771787 0.0983
H 0.397706 0.0102924 0.771697 0.0983
H 0.39772 0.260277 0.771756 0.0983
H 0.0752958 0.998106 0.808022 0.31454
H 0.0753137 0.248111 0.808109 0.31454
H 0.32529 0.998092 0.807983 0.31454
H 0.325308 0.248097 0.808069 0.31454
H 0.101403 0.102984 0.867731 0.0983
H 0.101402 0.353049 0.867714 0.0983
H 0.351397 0.102952 0.867718 0.0983
H 0.351396 0.353016 0.8677 0.0983
H 0.0720377 0.112936 0.823023 0.0983
H 0.0720252 0.362925 0.822985 0.0983
H 0.322053 0.11293 0.823 0.0983
H 0.322041 0.36292 0.822961 0.0983
H 0.130956 0.198237 0.918489 0.0983
H 0.130935 0.448309 0.918415 0.0983
H 0.380956 0.198225 0.918471 0.0983
H 0.380936 0.448295 0.918398 0.0983
H 0.0713943 0.0458632 0.872456 0.0983
H 0.0714694 0.295912 0.872555 0.0983
H 0.321351 0.0458429 0.872398 0.0983
H 0.321422 0.29589 0.872492 0.0983
H 0.0427953 0.0565457 0.827813 0.0983
H 0.0428265 0.306514 0.82792 0.0983
H 0.292783 0.056553 0.827737 0.0983
H 0.292813 0.306523 0.827836 0.0983
H 0.105507 0.196578 0.745872 0.0983
H 0.105497 0.44659 0.745795 0.0983
H 0.35552 0.196558 0.74585 0.0983
H 0.355511 0.446571 0.745774 0.0983
H 0.151448 0.201503 0.755622 0.0983
H 0.15144 0.451518 0.755532 0.0983
H 0.401458 0.201493 0.75561 0.0983
H 0.401452 0.451509 0.755522 0.0983
H 0.172821 0.155984 0.5882 0.31454
H 0.172807 0.405929 0.588214 0.31454
H 0.42281 0.155971 0.588182 0.31454
H 0.422795 0.405918 0.588199 0.31454
H 0.148448 0.140017 0.629876 0.31454
H 0.148445 0.389983 0.629914 0.31454
H 0.398442 0.139998 0.62986 0.31454
H 0.398439 0.389965 0.6299 0.31454
H 0.00514583 0.187049 0.843404 0.0983
H 0.0051382 0.437075 0.843334 0.0983
H 0.255157 0.187073 0.843389 0.0983
H 0.255149 0.437099 0.843319 0.0983
H 0.19138 0.21145 0.952126 0.0983
H 0.191373 0.461503 0.952047 0.0983
H 0.441354 0.211427 0.952104 0.0983
H 0.441348 0.461477 0.952027 0.0983
H 0.0164564 0.120366 0.969793 0.0983
H 0.0164618 0.37043 0.969761 0.0983
H 0.266449 0.120346 0.969781 0.0983
H 0.266455 0.370409 0.969748 0.0983
H 0.222137 0.178764 0.511017 0.0983
H 0.222146 0.428697 0.511086 0.0983
H 0.472124 0.178754 0.511009 0.0983
H 0.472132 0.42869 0.511077 0.0983
H 0.0189256 0.174834 0.507671 0.0983
H 0.0189334 0.424761 0.507732 0.0983
H 0.268924 0.174817 0.507647 0.0983
H 0.268931 0.424744 0.507708 0.0983
H 0.201024 0.106358 0.859068 0.0983
H 0.200939 0.356336 0.859068 0.0983
H 0.451043 0.106352 0.859047 0.0983
H 0.450962 0.35633 0.859044 0.0983
H 0.164315 0.0915402 0.889539 0.0983
H 0.16428 0.341494 0.889611 0.0983
H 0.414325 0.0915436 0.889506 0.0983
H 0.414291 0.341499 0.889574 0.0983
H 0.14811 0.0317353 0.874754 0.31454
H 0.148115 0.28169 0.874872 0.31454
H 0.398108 0.0317399 0.874715 0.31454
H 0.398112 0.281696 0.874828 0.31454
H 0.180296 0.0252333 0.912525 0.31454
H 0.180334 0.275209 0.912608 0.31454
H 0.43028 0.0252363 0.912505 0.31454
H 0.430316 0.275213 0.912584 0.31454
H 0.188458 0.0534284 0.823077 0.0983
H 0.188426 0.30338 0.823136 0.0983
H 0.438476 0.0534235 0.823058 0.0983
H 0.438443 0.303376 0.823113 0.0983
H 0.224597 0.0435446 0.858285 0.0983
H 0.224587 0.293538 0.858329 0.0983
H 0.474603 0.0435329 0.858281 0.0983
H 0.474592 0.293526 0.858321 0.0983
H 0.192321 0.0759513 0.692009 0.0983
H 0.19233 0.325953 0.692084 0.0983
H 0.442288 0.0759065 0.691977 0.0983
H 0.442297 0.325908 0.692051 0.0983
H 0.194188 0.139266 0.939913 0.31454
H 0.194206 0.389311 0.939833 0.31454
H 0.444188 0.139264 0.939893 0.31454
H 0.444204 0.389307 0.939813 0.31454
H 0.022709 0.240041 0.728817 0.0983
H 0.0227236 0.490056 0.728759 0.0983
H 0.272704 0.239999 0.728822 0.0983
H 0.272718 0.490014 0.728763 0.0983
H 0.200289 0.252205 0.69256 0.31454
H 0.200307 0.5022 0.692473 0.31454
H 0.450283 0.252191 0.692538 0.31454
H 0.4503 0.502187 0.692454 0.31454
H 0.226399 0.147339 0.632819 0.0983
H 0.226398 0.397275 0.632837 0.0983
H 0.476392 0.147336 0.63279 0.0983
H 0.476391 0.397274 0.632808 0.0983
H 0.197046 0.13737 0.677542 0.0983
H 0.197034 0.38738 0.67758 0.0983
H 0.447051 0.137347 0.677515 0.0983
H 0.44704 0.387357 0.677554 0.0983
H 0.00593481 0.0520427 0.582099 0.0983
H 0.00591422 0.301971 0.582173 0.0983
H 0.255967 0.0520734 0.58207 0.0983
H 0.255946 0.302002 0.582143 0.0983
H 0.196363 0.204455 0.628138 0.0983
H 0.196436 0.454407 0.628041 0.0983
H 0.446332 0.204444 0.628137 0.0983
H 0.446401 0.454398 0.628045 0.0983
H 0.167785 0.193752 0.672802 0.0983
H 0.167815 0.443784 0.672698 0.0983
H 0.417772 0.193723 0.672811 0.0983
H 0.417802 0.443753 0.672714 0.0983
H 0.230506 0.0537292 0.754692 0.0983
H 0.230497 0.303717 0.754769 0.0983
H 0.480488 0.0537141 0.754678 0.0983
H 0.48048 0.303701 0.754754 0.0983
H 0.0264374 0.0488308 0.744991 0.0983
H 0.0264291 0.298816 0.745081 0.0983
H 0.276448 0.0487978 0.744926 0.0983
H 0.276441 0.298782 0.745016 0.0983
C 0.122593 0.0574809 0.62317 0.25189
C 0.122586 0.307445 0.623242 0.25189
C 0.372593 0.0574559 0.62314 0.25189
C 0.372586 0.30742 0.623212 0.25189
C 0.0902911 0.0437507 0.567247 -0.09298
C 0.0902842 0.293701 0.567324 -0.09298
C 0.340304 0.0437123 0.56721 -0.09298
C 0.340297 0.293664 0.567287 -0.09298
C 0.11927 0.0613521 0.552749 0.18052
C 0.119265 0.311296 0.552819 0.18052
C 0.369277 0.0613247 0.552719 0.18052
C 0.369272 0.31127 0.552788 0.18052
C 0.106994 0.136074 0.976479 0.6158
C 0.106997 0.386148 0.976439 0.6158
C 0.356993 0.136048 0.976451 0.6158
C 0.356996 0.386121 0.97641 0.6158
C 0.11544 0.120049 0.519544 0.04907
C 0.115442 0.369986 0.51959 0.04907
C 0.36544 0.120021 0.519513 0.04907
C 0.365443 0.36996 0.51956 0.04907
C 0.11894 0.0811747 0.511159 -0.30643
C 0.118934 0.331109 0.51122 -0.30643
C 0.368944 0.0811469 0.511127 -0.30643
C 0.368939 0.331083 0.511189 -0.30643
C 0.0675321 0.163697 0.618525 -0.30643
C 0.0674959 0.413717 0.618493 -0.30643
C 0.317533 0.163667 0.618495 -0.30643
C 0.317497 0.413687 0.618465 -0.30643
C 0.0715591 0.198773 0.642308 0.12371
C 0.0715427 0.4488 0.642252 0.12371
C 0.321559 0.198745 0.642275 0.12371
C 0.321542 0.448771 0.642221 0.12371
C 0.12036 0.196523 0.813965 0.18052
C 0.120366 0.446529 0.813885 0.18052
C 0.370364 0.196515 0.813948 0.18052
C 0.370369 0.446522 0.813868 0.18052
C 0.0905506 0.180289 0.828238 -0.09298
C 0.090557 0.430295 0.828165 -0.09298
C 0.340557 0.180275 0.828216 -0.09298
C 0.340564 0.430282 0.828143 -0.09298
C 0.111031 0.00705377 0.718636 0.6158
C 0.111031 0.257037 0.718712 0.6158
C 0.36103 0.00703092 0.718604 0.6158
C 0.36103 0.257013 0.718679 0.6158
C 0.121532 0.998615 0.765019 0.04907
C 0.121542 0.248604 0.765092 0.04907
C 0.371532 0.998601 0.76499 0.04907
C 0.371542 0.24859 0.765062 0.04907
C 0.0889436 0.159159 0.576454 0.57738
C 0.0889432 0.409132 0.576457 0.57738
C 0.33894 0.15913 0.57642 0.57738
C 0.33894 0.409104 0.576425 0.57738
C 0.0746806 0.0984961 0.853645 0.12371
C 0.074683 0.348523 0.853638 0.12371
C 0.324677 0.0984806 0.853616 0.12371
C 0.324679 0.348507 0.853607 0.12371
C 0.122464 0.194255 0.884482 0.25189
C 0.122452 0.444303 0.884408 0.25189
C 0.372467 0.19424 0.884462 0.25189
C 0.372456 0.444288 0.88439 0.25189
C 0.0695912 0.0606054 0.841932 -0.30643
C 0.0696278 0.310616 0.842002 -0.30643
C 0.319574 0.060595 0.84188 -0.30643
C 0.319608 0.310606 0.841946 -0.30643
C 0.125106 0.209618 0.768153 -0.30643
C 0.125099 0.459629 0.768072 -0.30643
C 0.375113 0.209605 0.768133 -0.30643
C 0.375107 0.459617 0.768053 -0.30643
C 0.0962838 0.0467349 0.809139 0.57738
C 0.0963135 0.296735 0.809209 0.57738
C 0.346277 0.0467219 0.809103 0.57738
C 0.346305 0.296722 0.809169 0.57738
C 0.997576 0.192814 0.877408 0.25189
C 0.997569 0.44285 0.877336 0.25189
C 0.247594 0.192832 0.877397 0.25189
C 0.247587 0.442869 0.877325 0.25189
C 0.215294 0.206571 0.93333 -0.09298
C 0.215287 0.456621 0.933253 -0.09298
C 0.465278 0.206566 0.933321 -0.09298
C 0.465272 0.456613 0.933245 -0.09298
C 0.24427 0.188962 0.947818 0.18052
C 0.244265 0.439018 0.947748 0.18052
C 0.494259 0.188969 0.947817 0.18052
C 0.494254 0.439022 0.947748 0.18052
C 0.231996 0.114237 0.524082 0.6158
C 0.231999 0.364163 0.524123 0.6158
C 0.481995 0.114228 0.524064 0.6158
C 0.481998 0.364158 0.524106 0.6158
C 0.240439 0.130265 0.981018 0.04907
C 0.240441 0.380328 0.980972 0.04907
C 0.490435 0.130266 0.981006 0.04907
C 0.490437 0.380326 0.980959 0.04907
C 0.243936 0.169139 0.989407 -0.30643
C 0.243931 0.419204 0.989345 -0.30643
C 0.493925 0.16914 0.989401 -0.30643
C 0.49392 0.419202 0.989339 -0.30643
C 0.192538 0.0866247 0.882047 -0.30643
C 0.192501 0.336606 0.882078 -0.30643
C 0.442548 0.0866222 0.882026 -0.30643
C 0.442512 0.336603 0.882054 -0.30643
C 0.196563 0.051547 0.858266 0.12371
C 0.196546 0.30152 0.858322 0.12371
C 0.44657 0.0515421 0.85825 0.12371
C 0.446553 0.301516 0.858302 0.12371
C 0.245361 0.0537797 0.686594 0.18052
C 0.245367 0.303773 0.686674 0.18052
C 0.495347 0.0537736 0.686584 0.18052
C 0.495353 0.303766 0.686662 0.18052
C 0.215554 0.0700195 0.672329 -0.09298
C 0.21556 0.320013 0.672403 -0.09298
C 0.46553 0.0699899 0.672308 -0.09298
C 0.465537 0.319984 0.672381 -0.09298
C 0.23603 0.243255 0.781928 0.6158
C 0.23603 0.493272 0.781853 0.6158
C 0.48603 0.243239 0.781908 0.6158
C 0.48603 0.493258 0.781834 0.6158
C 0.496523 0.251678 0.73552 0.04907
C 0.496533 0.50169 0.735449 0.04907
C 0.246529 0.251689 0.735541 0.04907
C 0.246539 0.501701 0.735468 0.04907
C 0.213943 0.0911587 0.924117 0.57738
C 0.213943 0.341185 0.924113 0.57738
C 0.463945 0.0911564 0.924103 0.57738
C 0.463944 0.341181 0.924097 0.57738
C 0.199678 0.151817 0.646924 0.12371
C 0.19968 0.40179 0.646932 0.12371
C 0.449672 0.151803 0.646903 0.12371
C 0.449674 0.401777 0.646912 0.12371
C 0.997446 0.0560402 0.616109 0.25189
C 0.997434 0.305992 0.616182 0.25189
C 0.247473 0.0560565 0.616079 0.25189
C 0.247462 0.306008 0.616153 0.25189
C 0.194577 0.189704 0.658657 -0.30643
C 0.194613 0.439693 0.658588 -0.30643
C 0.444561 0.189687 0.658652 -0.30643
C 0.444595 0.439676 0.658587 -0.30643
C 0.250105 0.0406861 0.732405 -0.30643
C 0.250099 0.290675 0.732486 -0.30643
C 0.500091 0.0406767 0.732393 -0.30643
C 0.500086 0.290664 0.732471 -0.30643
C 0.221276 0.203573 0.691432 0.57738
C 0.221305 0.453573 0.691364 0.57738
C 0.471266 0.203558 0.691419 0.57738
C 0.471294 0.453559 0.691354 0.57738
N 0.0482858 0.110504 0.885822 -0.64634
N 0.0482799 0.360545 0.885795 -0.64634
N 0.298277 0.110492 0.885783 -0.64634
N 0.29827 0.360533 0.885754 -0.64634
N 0.0919394 0.178718 0.872552 -0.44443
N 0.0919357 0.428751 0.872482 -0.44443
N 0.341946 0.178699 0.872529 -0.44443
N 0.341943 0.428732 0.87246 -0.44443
N 0.0923879 0.0415853 0.611419 -0.44443
N 0.0923796 0.291548 0.611498 -0.44443
N 0.342396 0.0415478 0.611383 -0.44443
N 0.342388 0.291512 0.611461 -0.44443
N 0.139649 0.0697504 0.588163 -0.44443
N 0.139644 0.319702 0.588229 -0.44443
N 0.389649 0.0697316 0.588136 -0.44443
N 0.389644 0.319684 0.588202 -0.44443
N 0.0497916 0.224493 0.621951 -0.64634
N 0.0498034 0.474525 0.621862 -0.64634
N 0.299787 0.224461 0.621919 -0.64634
N 0.299798 0.474494 0.621832 -0.64634
N 0.140423 0.205641 0.849379 -0.44443
N 0.140417 0.455673 0.8493 -0.44443
N 0.390425 0.205634 0.849362 -0.44443
N 0.390419 0.455666 0.849284 -0.44443
N 0.0884611 0.128858 0.553276 -0.43464
N 0.0884716 0.37881 0.553327 -0.43464
N 0.338461 0.128828 0.553245 -0.43464
N 0.338471 0.378782 0.553296 -0.43464
N 0.0957748 0.013229 0.796822 -0.43464
N 0.0957958 0.263227 0.796902 -0.43464
N 0.345772 0.0132152 0.796789 -0.43464
N 0.345792 0.263213 0.796867 -0.43464
N 0.173281 0.13981 0.61476 -0.64634
N 0.173275 0.389769 0.614788 -0.64634
N 0.423274 0.139795 0.614741 -0.64634
N 0.423267 0.389755 0.614771 -0.64634
N 0.216948 0.0715966 0.628017 -0.44443
N 0.216944 0.321563 0.628086 -0.44443
N 0.466944 0.0715877 0.627999 -0.44443
N 0.466941 0.321556 0.628068 -0.44443
N 0.217391 0.208737 0.889157 -0.44443
N 0.217383 0.458773 0.889079 -0.44443
N 0.467391 0.208745 0.889151 -0.44443
N 0.467383 0.458781 0.889074 -0.44443
N 0.0146357 0.180562 0.912419 -0.44443
N 0.0146308 0.43061 0.912354 -0.44443
N 0.264648 0.180558 0.912398 -0.44443
N 0.264644 0.430606 0.912332 -0.44443
N 0.174789 0.025833 0.878631 -0.64634
N 0.1748 0.2758 0.878719 -0.64634
N 0.424784 0.0258337 0.878607 -0.64634
N 0.424794 0.275802 0.878692 -0.64634
N 0.0154207 0.0446873 0.651215 -0.44443
N 0.0154139 0.294655 0.651294 -0.44443
N 0.265428 0.0446627 0.651177 -0.44443
N 0.265421 0.294631 0.651256 -0.44443
N 0.21346 0.121459 0.947295 -0.43464
N 0.21347 0.371506 0.947244 -0.43464
N 0.463458 0.121458 0.94728 -0.43464
N 0.463469 0.371503 0.947228 -0.43464
N 0.220769 0.237079 0.703749 -0.43464
N 0.22079 0.487081 0.70367 -0.43464
N 0.470762 0.237066 0.70373 -0.43464
N 0.470783 0.487068 0.703653 -0.43464
O 0.0778413 0.151252 0.971438 -0.59613
O 0.0778383 0.401315 0.971391 -0.59613
O 0.32784 0.151225 0.97141 -0.59613
O 0.327837 0.401286 0.971362 -0.59613
O 0.127732 0.130573 0.942209 -0.58866
O 0.127747 0.380667 0.942176 -0.58866
O 0.377734 0.130553 0.942182 -0.58866
O 0.377749 0.380644 0.942148 -0.58866
O 0.0793952 0.0155611 0.710554 -0.59613
O 0.0793907 0.265533 0.710636 -0.59613
O 0.329392 0.0155272 0.710518 -0.59613
O 0.329387 0.265498 0.710599 -0.59613
O 0.109109 0.183977 0.563207 -0.58866
O 0.109113 0.433938 0.563183 -0.58866
O 0.3591 0.183951 0.563168 -0.58866
O 0.359105 0.433913 0.563147 -0.58866
O 0.133403 0.00203434 0.685917 -0.58866
O 0.133397 0.252016 0.685986 -0.58866
O 0.383404 0.00201214 0.685887 -0.58866
O 0.383398 0.251993 0.685956 -0.58866
O 0.119553 0.0671128 0.79168 -0.58866
O 0.11959 0.317104 0.791745 -0.58866
O 0.369549 0.0670996 0.791648 -0.58866
O 0.369583 0.31709 0.791709 -0.58866
O 0.202843 0.099064 0.529135 -0.59613
O 0.20284 0.349002 0.529182 -0.59613
O 0.452843 0.0990524 0.529114 -0.59613
O 0.45284 0.348993 0.529163 -0.59613
O 0.00274356 0.119745 0.558356 -0.58866
O 0.00275929 0.369652 0.558388 -0.58866
O 0.252737 0.119732 0.558344 -0.58866
O 0.252752 0.369639 0.558377 -0.58866
O 0.204392 0.234761 0.790024 -0.59613
O 0.204387 0.48479 0.789942 -0.59613
O 0.454391 0.234751 0.790009 -0.59613
O 0.454387 0.484781 0.789929 -0.59613
O 0.484105 0.0663349 0.937352 -0.58866
O 0.484109 0.316372 0.937371 -0.58866
O 0.234106 0.066337 0.937359 -0.58866
O 0.23411 0.316376 0.937382 -0.58866
O 0.0084108 0.248262 0.814634 -0.58866
O 0.00840471 0.498281 0.814565 -0.58866
O 0.258404 0.248271 0.814639 -0.58866
O 0.258398 0.49829 0.814569 -0.58866
O 0.494533 0.183176 0.708874 -0.58866
O 0.494568 0.433187 0.708814 -0.58866
O 0.244546 0.183191 0.708882 -0.58866
O 0.244582 0.433201 0.708819 -0.58866
Zn 0.0593178 0.51905 0.148872 0.82244
Zn 0.0593258 0.769082 0.148788 0.82244
Zn 0.30932 0.51902 0.148835 0.82244
Zn 0.309328 0.769052 0.148752 0.82244
Zn 0.183402 0.594701 0.0907688 0.82244
Zn 0.183407 0.844748 0.0907155 0.82244
Zn 0.433399 0.59469 0.0907496 0.82244
Zn 0.433403 0.844736 0.0906956 0.82244
Zn 0.184319 0.731272 0.351711 0.82244
Zn 0.184326 0.98124 0.351795 0.82244
Zn 0.434318 0.731268 0.351696 0.82244
Zn 0.434325 0.981236 0.351778 0.82244
Zn 0.0583967 0.655614 0.409809 0.82244
Zn 0.0584008 0.905567 0.409862 0.82244
Zn 0.308399 0.655595 0.409778 0.82244
Zn 0.308403 0.905549 0.409832 0.82244
H 0.0475814 0.594338 0.412224 0.31454
H 0.0475935 0.844283 0.412237 0.31454
H 0.297557 0.594322 0.412178 0.31454
H 0.297571 0.844268 0.412193 0.31454
H 0.0234373 0.610341 0.370373 0.31454
H 0.0234396 0.860308 0.370409 0.31454
H 0.273431 0.610338 0.37032 0.31454
H 0.273434 0.860304 0.370358 0.31454
H 0.13015 0.563248 0.157337 0.0983
H 0.130158 0.813273 0.157267 0.0983
H 0.380143 0.563229 0.15731 0.0983
H 0.38015 0.813255 0.15724 0.0983
H 0.0664634 0.538805 0.0485587 0.0983
H 0.0664702 0.788858 0.0484799 0.0983
H 0.316479 0.538764 0.0485196 0.0983
H 0.316485 0.788815 0.0484415 0.0983
H 0.141433 0.629838 0.0307106 0.0983
H 0.141427 0.879902 0.0306782 0.0983
H 0.391432 0.629816 0.0306835 0.0983
H 0.391426 0.879877 0.0306497 0.0983
H 0.0969463 0.57174 0.489487 0.0983
H 0.0969375 0.821672 0.489556 0.0983
H 0.346951 0.57171 0.489457 0.0983
H 0.346943 0.821645 0.489525 0.0983
H 0.14376 0.575528 0.492699 0.0983
H 0.143752 0.825454 0.49276 0.0983
H 0.393765 0.575503 0.492667 0.0983
H 0.393757 0.825431 0.492729 0.0983
H 0.0757344 0.643956 0.141456 0.0983
H 0.07582 0.893934 0.141457 0.0983
H 0.325739 0.643929 0.141428 0.0983
H 0.325823 0.893906 0.141427 0.0983
H 0.0391552 0.658893 0.110853 0.0983
H 0.0391902 0.908846 0.110927 0.0983
H 0.289155 0.658861 0.110831 0.0983
H 0.289189 0.908815 0.110902 0.0983
H 0.0230953 0.718693 0.125643 0.31454
H 0.0230901 0.968648 0.125762 0.31454
H 0.27309 0.718664 0.125624 0.31454
H 0.273085 0.968619 0.12574 0.31454
H 0.0553564 0.725157 0.0879511 0.31454
H 0.055318 0.975133 0.0880341 0.31454
H 0.305344 0.725123 0.0879203 0.31454
H 0.305307 0.9751 0.0880009 0.31454
H 0.0633505 0.696931 0.177402 0.0983
H 0.063383 0.946882 0.177461 0.0983
H 0.31335 0.696903 0.177374 0.0983
H 0.313383 0.946855 0.17743 0.0983
H 0.0995402 0.706717 0.142219 0.0983
H 0.0995509 0.956711 0.142264 0.0983
H 0.349537 0.706692 0.142187 0.0983
H 0.349548 0.956685 0.142229 0.0983
H 0.0674216 0.674223 0.308402 0.0983
H 0.0674127 0.924225 0.308476 0.0983
H 0.317429 0.674207 0.308377 0.0983
H 0.31742 0.924208 0.308451 0.0983
H 0.0692455 0.610896 0.060887 0.31454
H 0.0692283 0.860942 0.0608065 0.31454
H 0.319246 0.610867 0.0608582 0.31454
H 0.319229 0.860911 0.0607779 0.31454
H 0.14774 0.510234 0.271755 0.0983
H 0.147725 0.760248 0.271696 0.0983
H 0.397738 0.510223 0.271724 0.0983
H 0.397724 0.760238 0.271665 0.0983
H 0.0753401 0.49802 0.308092 0.31454
H 0.0753221 0.748015 0.308005 0.31454
H 0.325335 0.498004 0.308054 0.31454
H 0.325317 0.747999 0.307967 0.31454
H 0.101387 0.602896 0.367944 0.0983
H 0.101387 0.85283 0.367962 0.0983
H 0.351379 0.602863 0.36793 0.0983
H 0.35138 0.852799 0.367948 0.0983
H 0.07223 0.61283 0.323012 0.0983
H 0.072243 0.862841 0.32305 0.0983
H 0.322245 0.612822 0.322986 0.0983
H 0.322257 0.862832 0.323025 0.0983
H 0.130887 0.698364 0.418383 0.0983
H 0.130907 0.948292 0.418456 0.0983
H 0.380887 0.698348 0.418364 0.0983
H 0.380907 0.948278 0.418436 0.0983
H 0.0714222 0.545803 0.372544 0.0983
H 0.0713469 0.795755 0.372444 0.0983
H 0.321378 0.545781 0.372484 0.0983
H 0.321307 0.795734 0.37239 0.0983
H 0.0428472 0.556459 0.327862 0.0983
H 0.0428162 0.806491 0.327756 0.0983
H 0.292834 0.556464 0.327783 0.0983
H 0.292805 0.806495 0.327683 0.0983
H 0.105556 0.696521 0.245742 0.0983
H 0.105566 0.946509 0.245819 0.0983
H 0.35557 0.696501 0.245719 0.0983
H 0.355578 0.946488 0.245796 0.0983
H 0.151497 0.701477 0.255484 0.0983
H 0.151505 0.951462 0.255575 0.0983
H 0.401508 0.701466 0.255471 0.0983
H 0.401514 0.95145 0.25556 0.0983
H 0.172568 0.655976 0.0883622 0.31454
H 0.172581 0.906031 0.0883482 0.31454
H 0.422556 0.655965 0.0883483 0.31454
H 0.422569 0.906018 0.0883318 0.31454
H 0.148433 0.639967 0.130224 0.31454
H 0.148436 0.890001 0.130187 0.31454
H 0.398426 0.63995 0.130212 0.31454
H 0.398429 0.889984 0.130172 0.31454
H 0.00513859 0.687037 0.343241 0.0983
H 0.00514598 0.937011 0.343311 0.0983
H 0.255148 0.68706 0.343225 0.0983
H 0.255156 0.937035 0.343295 0.0983
H 0.191467 0.71152 0.452024 0.0983
H 0.191474 0.961467 0.452102 0.0983
H 0.441441 0.71149 0.452001 0.0983
H 0.441448 0.96144 0.452078 0.0983
H 0.0164392 0.620495 0.469852 0.0983
H 0.0164339 0.870432 0.469884 0.0983
H 0.266431 0.620474 0.469839 0.0983
H 0.266426 0.870411 0.469872 0.0983
H 0.22194 0.678574 0.011083 0.0983
H 0.221931 0.92864 0.0110147 0.0983
H 0.471926 0.678569 0.0110759 0.0983
H 0.471918 0.928633 0.0110081 0.0983
H 0.0187581 0.6748 0.00788385 0.0983
H 0.0187501 0.924874 0.00782349 0.0983
H 0.268755 0.674784 0.00786188 0.0983
H 0.268747 0.924857 0.0078009 0.0983
H 0.200746 0.606362 0.359114 0.0983
H 0.200832 0.856384 0.359113 0.0983
H 0.450765 0.606354 0.359088 0.0983
H 0.450848 0.856376 0.35909 0.0983
H 0.164159 0.591434 0.389721 0.0983
H 0.164194 0.841481 0.389647 0.0983
H 0.414168 0.591436 0.389684 0.0983
H 0.414202 0.841481 0.389615 0.0983
H 0.148092 0.531634 0.374935 0.31454
H 0.148088 0.781679 0.374817 0.31454
H 0.39809 0.531636 0.374893 0.31454
H 0.398085 0.781681 0.37478 0.31454
H 0.180346 0.52517 0.412628 0.31454
H 0.180308 0.775194 0.412546 0.31454
H 0.43033 0.525171 0.412603 0.31454
H 0.430293 0.775194 0.412525 0.31454
H 0.188356 0.553388 0.323172 0.0983
H 0.188389 0.803437 0.323114 0.0983
H 0.43837 0.553382 0.323148 0.0983
H 0.438403 0.80343 0.323093 0.0983
H 0.22454 0.543596 0.358349 0.0983
H 0.224552 0.793602 0.358305 0.0983
H 0.474545 0.543582 0.358338 0.0983
H 0.474556 0.793589 0.358298 0.0983
H 0.192423 0.576085 0.19217 0.0983
H 0.192414 0.826083 0.192096 0.0983
H 0.442392 0.576043 0.192141 0.0983
H 0.442382 0.826041 0.192067 0.0983
H 0.194242 0.639421 0.439691 0.31454
H 0.194225 0.889376 0.439772 0.31454
H 0.444241 0.639415 0.439669 0.31454
H 0.444224 0.889372 0.439749 0.31454
H 0.0227417 0.740106 0.22879 0.0983
H 0.0227272 0.990092 0.228849 0.0983
H 0.272736 0.740066 0.228795 0.0983
H 0.272722 0.990051 0.228854 0.0983
H 0.200334 0.75229 0.192487 0.31454
H 0.200316 0.00229537 0.192575 0.31454
H 0.450328 0.752279 0.192467 0.31454
H 0.450311 0.00228331 0.192553 0.31454
H 0.226381 0.647427 0.132605 0.0983
H 0.226382 0.897492 0.132588 0.0983
H 0.476374 0.647423 0.132581 0.0983
H 0.476375 0.897487 0.132562 0.0983
H 0.197239 0.637475 0.177553 0.0983
H 0.197252 0.887465 0.177515 0.0983
H 0.447241 0.637456 0.177531 0.0983
H 0.447253 0.887446 0.177491 0.0983
H 0.00586653 0.551916 0.0822039 0.0983
H 0.00588701 0.801988 0.0821301 0.0983
H 0.255898 0.551947 0.082175 0.0983
H 0.255918 0.802018 0.0821017 0.0983
H 0.196389 0.704514 0.128051 0.0983
H 0.196316 0.954562 0.128148 0.0983
H 0.446363 0.704504 0.128049 0.0983
H 0.446292 0.954552 0.128142 0.0983
H 0.167836 0.693838 0.172754 0.0983
H 0.167806 0.943807 0.172858 0.0983
H 0.417825 0.693814 0.172761 0.0983
H 0.417796 0.943783 0.172859 0.0983
H 0.230557 0.553786 0.254821 0.0983
H 0.230566 0.803798 0.254745 0.0983
H 0.480539 0.55377 0.254808 0.0983
H 0.480547 0.803783 0.254732 0.0983
H 0.0264865 0.548855 0.245127 0.0983
H 0.0264947 0.79887 0.245036 0.0983
H 0.276497 0.548823 0.245063 0.0983
H 0.276504 0.798838 0.244974 0.0983
C 0.122611 0.557473 0.123327 0.25189
C 0.122618 0.807509 0.123255 0.25189
C 0.372611 0.557449 0.123298 0.25189
C 0.372618 0.807485 0.123226 0.25189
C 0.0903649 0.543687 0.0673723 -0.09298
C 0.0903717 0.793737 0.0672948 -0.09298
C 0.340377 0.543652 0.067337 -0.09298
C 0.340384 0.7937 0.0672602 -0.09298
C 0.119352 0.561287 0.0528959 0.18052
C 0.119358 0.811343 0.0528264 0.18052
C 0.36936 0.561263 0.0528667 0.18052
C 0.369365 0.811317 0.0527974 0.18052
C 0.107068 0.636265 0.47648 0.6158
C 0.107064 0.88619 0.47652 0.6158
C 0.357066 0.636236 0.476449 0.6158
C 0.357063 0.886164 0.47649 0.6158
C 0.115377 0.619953 0.0196049 0.04907
C 0.115375 0.870017 0.019559 0.04907
C 0.365377 0.619928 0.0195766 0.04907
C 0.365375 0.86999 0.0195298 0.04907
C 0.119056 0.58108 0.0112857 -0.30643
C 0.119062 0.831146 0.0112236 -0.30643
C 0.369061 0.581056 0.0112568 -0.30643
C 0.369066 0.831119 0.0111945 -0.30643
C 0.0673782 0.663713 0.118441 -0.30643
C 0.067415 0.913694 0.118473 -0.30643
C 0.317378 0.663684 0.118414 -0.30643
C 0.317414 0.913665 0.118444 -0.30643
C 0.0714828 0.698785 0.142218 0.12371
C 0.0715 0.948759 0.142274 0.12371
C 0.32148 0.698758 0.142188 0.12371
C 0.321498 0.948731 0.142242 0.12371
C 0.120432 0.696445 0.313832 0.18052
C 0.120426 0.946439 0.313913 0.18052
C 0.370436 0.696436 0.313813 0.18052
C 0.37043 0.946429 0.313892 0.18052
C 0.0906406 0.680172 0.328091 -0.09298
C 0.0906339 0.930166 0.328165 -0.09298
C 0.340647 0.680156 0.328068 -0.09298
C 0.340641 0.93015 0.328141 -0.09298
C 0.111039 0.506984 0.218699 0.6158
C 0.111039 0.757001 0.218623 0.6158
C 0.361038 0.50696 0.218667 0.6158
C 0.361038 0.756978 0.218592 0.6158
C 0.121566 0.498539 0.26507 0.04907
C 0.121555 0.748551 0.264996 0.04907
C 0.371566 0.498524 0.26504 0.04907
C 0.371555 0.748535 0.264968 0.04907
C 0.0888579 0.659094 0.076437 0.57738
C 0.0888585 0.909121 0.0764336 0.57738
C 0.338854 0.659068 0.0764066 0.57738
C 0.338854 0.909093 0.0764014 0.57738
C 0.0747206 0.59842 0.353679 0.12371
C 0.0747182 0.848393 0.353686 0.12371
C 0.324716 0.598403 0.353647 0.12371
C 0.324714 0.848376 0.353657 0.12371
C 0.122468 0.694267 0.384364 0.25189
C 0.122479 0.944219 0.384437 0.25189
C 0.372471 0.69425 0.384343 0.25189
C 0.372482 0.944203 0.384416 0.25189
C 0.0696346 0.560525 0.342001 -0.30643
C 0.0695979 0.810514 0.341931 -0.30643
C 0.319616 0.560513 0.341947 -0.30643
C 0.319581 0.810502 0.341881 -0.30643
C 0.12515 0.709565 0.268027 -0.30643
C 0.125156 0.959554 0.268108 -0.30643
C 0.375157 0.709551 0.268007 -0.30643
C 0.375163 0.95954 0.268087 -0.30643
C 0.0963443 0.546646 0.309236 0.57738
C 0.0963148 0.796645 0.309167 0.57738
C 0.346337 0.54663 0.309198 0.57738
C 0.346309 0.79663 0.309132 0.57738
C 0.997594 0.69282 0.37725 0.25189
C 0.997601 0.942784 0.377322 0.25189
C 0.247611 0.692839 0.377237 0.25189
C 0.247618 0.942803 0.37731 0.25189
C 0.215368 0.706633 0.433202 -0.09298
C 0.215374 0.956584 0.43328 -0.09298
C 0.465352 0.706622 0.433192 -0.09298
C 0.465358 0.956576 0.433269 -0.09298
C 0.244352 0.689025 0.447669 0.18052
C 0.244358 0.93897 0.447738 0.18052
C 0.494341 0.689027 0.447667 0.18052
C 0.494346 0.938974 0.447736 0.18052
C 0.23207 0.614047 0.0240832 0.6158
C 0.232067 0.864121 0.0240426 0.6158
C 0.482068 0.614044 0.024069 0.6158
C 0.482065 0.864115 0.0240273 0.6158
C 0.240375 0.630359 0.480956 0.04907
C 0.240373 0.880297 0.481002 0.04907
C 0.490372 0.630355 0.48094 0.04907
C 0.49037 0.880296 0.480987 0.04907
C 0.244052 0.669231 0.489278 -0.30643
C 0.244058 0.919167 0.48934 -0.30643
C 0.494042 0.669227 0.48927 -0.30643
C 0.494047 0.919165 0.489332 -0.30643
C 0.192382 0.586608 0.38213 -0.30643
C 0.192419 0.836627 0.382098 -0.30643
C 0.442392 0.586603 0.382104 -0.30643
C 0.442428 0.836622 0.382076 -0.30643
C 0.196485 0.551534 0.358355 0.12371
C 0.196502 0.80156 0.358299 0.12371
C 0.446491 0.551527 0.358334 0.12371
C 0.446509 0.801553 0.358282 0.12371
C 0.245433 0.553857 0.186727 0.18052
C 0.245427 0.803863 0.186647 0.18052
C 0.49542 0.553852 0.186718 0.18052
C 0.495414 0.803859 0.186639 0.18052
C 0.215644 0.570136 0.172476 -0.09298
C 0.215637 0.820143 0.172402 -0.09298
C 0.465622 0.57011 0.172457 -0.09298
C 0.465615 0.820116 0.172383 -0.09298
C 0.236038 0.743324 0.281865 0.6158
C 0.236038 0.993306 0.28194 0.6158
C 0.486038 0.743309 0.281845 0.6158
C 0.486038 0.993291 0.281919 0.6158
C 0.496557 0.751755 0.23547 0.04907
C 0.496547 0.0017426 0.235542 0.04907
C 0.246563 0.751765 0.23549 0.04907
C 0.246552 0.00175338 0.235563 0.04907
C 0.213856 0.591221 0.424132 0.57738
C 0.213857 0.841195 0.424136 0.57738
C 0.463858 0.591216 0.424113 0.57738
C 0.463859 0.841191 0.42412 0.57738
C 0.199717 0.651892 0.146891 0.12371
C 0.199715 0.901919 0.146883 0.12371
C 0.44971 0.65188 0.146873 0.12371
C 0.449709 0.901906 0.146863 0.12371
C 0.99745 0.556027 0.116225 0.25189
C 0.997461 0.806075 0.116151 0.25189
C 0.247477 0.556044 0.116197 0.25189
C 0.247488 0.806092 0.116123 0.25189
C 0.194619 0.689784 0.158589 -0.30643
C 0.194584 0.939795 0.158657 -0.30643
C 0.444605 0.689769 0.158584 -0.30643
C 0.444571 0.93978 0.158648 -0.30643
C 0.250149 0.540738 0.23253 -0.30643
C 0.250155 0.790749 0.232449 -0.30643
C 0.500137 0.540729 0.232517 -0.30643
C 0.500142 0.790741 0.232438 -0.30643
C 0.221336 0.703662 0.191335 0.57738
C 0.221307 0.953662 0.191403 0.57738
C 0.471327 0.703649 0.191324 0.57738
C 0.471299 0.953649 0.191389 0.57738
N 0.0482047 0.610495 0.385651 -0.64634
N 0.0482103 0.860454 0.385678 -0.64634
N 0.298194 0.610482 0.385608 -0.64634
N 0.2982 0.860441 0.385637 -0.64634
N 0.0919896 0.678652 0.372413 -0.44443
N 0.091993 0.928619 0.372483 -0.44443
N 0.341996 0.678631 0.372389 -0.44443
N 0.342 0.928598 0.372458 -0.44443
N 0.09242 0.541558 0.111552 -0.44443
N 0.0924282 0.791595 0.111473 -0.44443
N 0.342428 0.541523 0.111517 -0.44443
N 0.342436 0.791559 0.111439 -0.44443
N 0.139696 0.569719 0.0883251 -0.44443
N 0.139701 0.819767 0.088259 -0.44443
N 0.389696 0.569702 0.0883001 -0.44443
N 0.3897 0.819749 0.0882341 -0.44443
N 0.0497923 0.724551 0.121833 -0.64634
N 0.0497809 0.974518 0.121922 -0.64634
N 0.299786 0.72452 0.121804 -0.64634
N 0.299776 0.974488 0.121891 -0.64634
N 0.140439 0.705644 0.349264 -0.44443
N 0.140446 0.955611 0.349344 -0.44443
N 0.390441 0.705634 0.349247 -0.44443
N 0.390447 0.955602 0.349325 -0.44443
N 0.0884218 0.628751 0.053359 -0.43464
N 0.0884113 0.878798 0.0533081 -0.43464
N 0.338421 0.628724 0.0533301 -0.43464
N 0.33841 0.878769 0.0532785 -0.43464
N 0.0958232 0.513143 0.2969 -0.43464
N 0.0958023 0.763145 0.29682 -0.43464
N 0.34582 0.513127 0.296866 -0.43464
N 0.345799 0.763129 0.296788 -0.43464
N 0.173199 0.639817 0.114933 -0.64634
N 0.173205 0.889859 0.114906 -0.64634
N 0.423191 0.639804 0.114918 -0.64634
N 0.423197 0.889845 0.114888 -0.64634
N 0.216998 0.571662 0.128155 -0.44443
N 0.217001 0.821695 0.128085 -0.44443
N 0.466995 0.571656 0.128139 -0.44443
N 0.466998 0.821688 0.12807 -0.44443
N 0.217423 0.708762 0.389022 -0.44443
N 0.217431 0.958725 0.389101 -0.44443
N 0.467423 0.708766 0.389016 -0.44443
N 0.467431 0.958731 0.389093 -0.44443
N 0.0146819 0.680592 0.412256 -0.44443
N 0.0146866 0.930544 0.412322 -0.44443
N 0.264694 0.680587 0.412234 -0.44443
N 0.264699 0.930539 0.4123 -0.44443
N 0.174788 0.525773 0.378747 -0.64634
N 0.174777 0.775806 0.378658 -0.64634
N 0.424783 0.525772 0.378719 -0.64634
N 0.424773 0.775804 0.378634 -0.64634
N 0.0154366 0.544683 0.151327 -0.44443
N 0.0154434 0.794715 0.151248 -0.44443
N 0.265444 0.54466 0.151291 -0.44443
N 0.265451 0.794692 0.151212 -0.44443
N 0.213419 0.621565 0.447211 -0.43464
N 0.213409 0.871518 0.447263 -0.43464
N 0.463418 0.621559 0.447193 -0.43464
N 0.463408 0.871514 0.447245 -0.43464
N 0.220818 0.737165 0.20367 -0.43464
N 0.220797 0.987163 0.203749 -0.43464
N 0.470811 0.737154 0.203652 -0.43464
N 0.470791 0.987151 0.203729 -0.43464
O 0.0777531 0.65113 0.471324 -0.59613
O 0.0777557 0.901067 0.471371 -0.59613
O 0.327751 0.651099 0.471293 -0.59613
O 0.327754 0.901038 0.471341 -0.59613
O 0.127961 0.631035 0.442304 -0.58866
O 0.127945 0.880942 0.442337 -0.58866
O 0.377962 0.631011 0.442274 -0.58866
O 0.377947 0.880921 0.442308 -0.58866
O 0.0794007 0.515494 0.210644 -0.59613
O 0.0794052 0.765523 0.210562 -0.59613
O 0.329397 0.51546 0.210609 -0.59613
O 0.329401 0.765489 0.210528 -0.59613
O 0.108988 0.683912 0.0631089 -0.58866
O 0.108983 0.933951 0.0631322 -0.58866
O 0.358979 0.683887 0.0630752 -0.58866
O 0.358974 0.933925 0.0630957 -0.58866
O 0.133397 0.501977 0.185961 -0.58866
O 0.133403 0.751996 0.185891 -0.58866
O 0.383397 0.501955 0.185931 -0.58866
O 0.383403 0.751975 0.185861 -0.58866
O 0.119627 0.567019 0.291794 -0.58866
O 0.119591 0.817028 0.29173 -0.58866
O 0.369621 0.567004 0.291759 -0.58866
O 0.369587 0.817013 0.291699 -0.58866
O 0.202755 0.599188 0.0292494 -0.59613
O 0.202758 0.84925 0.029202 -0.59613
O 0.452755 0.59918 0.0292321 -0.59613
O 0.452758 0.84924 0.029184 -0.59613
O 0.00297445 0.619281 0.0582599 -0.58866
O 0.00295906 0.869374 0.0582278 -0.58866
O 0.252966 0.619271 0.05825 -0.58866
O 0.252951 0.869363 0.0582168 -0.58866
O 0.204397 0.734827 0.289933 -0.59613
O 0.204401 0.984799 0.290015 -0.59613
O 0.454397 0.734817 0.289918 -0.59613
O 0.454402 0.984787 0.289998 -0.59613
O 0.483984 0.566395 0.43744 -0.58866
O 0.48398 0.816358 0.437422 -0.58866
O 0.233984 0.566401 0.437455 -0.58866
O 0.23398 0.816362 0.437433 -0.58866
O 0.00840445 0.748318 0.314589 -0.58866
O 0.00841047 0.998299 0.314659 -0.58866
O 0.258397 0.748327 0.314594 -0.58866
O 0.258403 0.998308 0.314664 -0.58866
O 0.494607 0.683272 0.208762 -0.58866
O 0.494573 0.933262 0.208821 -0.58866
O 0.244619 0.683285 0.20877 -0.58866
O 0.244584 0.933276 0.208832 -0.58866
Zn 0.0593127 0.519076 0.648771 0.82244
Zn 0.0593046 0.769044 0.648855 0.82244
Zn 0.309315 0.519045 0.648734 0.82244
Zn 0.309307 0.769012 0.648817 0.82244
Zn 0.183402 0.594663 0.590616 0.82244
Zn 0.183397 0.844615 0.59067 0.82244
Zn 0.433398 0.594649 0.590594 0.82244
Zn 0.433394 0.844603 0.590648 0.82244
Zn 0.184314 0.731248 0.851813 0.82244
Zn 0.184306 0.98128 0.85173 0.82244
Zn 0.434313 0.731246 0.851798 0.82244
Zn 0.434305 0.981278 0.851717 0.82244
Zn 0.0583959 0.655653 0.909961 0.82244
Zn 0.0583914 0.9057 0.909908 0.82244
Zn 0.308399 0.655636 0.909933 0.82244
Zn 0.308394 0.905683 0.909879 0.82244
H 0.0478317 0.594331 0.912384 0.31454
H 0.0478188 0.844386 0.912371 0.31454
H 0.29781 0.594316 0.912342 0.31454
H 0.297796 0.84437 0.912326 0.31454
H 0.0234515 0.610294 0.870718 0.31454
H 0.023449 0.860328 0.870682 0.31454
H 0.273446 0.610291 0.870669 0.31454
H 0.273443 0.860325 0.87063 0.31454
H 0.130158 0.563237 0.657174 0.0983
H 0.13015 0.813211 0.657245 0.0983
H 0.38015 0.563217 0.657146 0.0983
H 0.380143 0.813191 0.657216 0.0983
H 0.0663759 0.538876 0.548458 0.0983
H 0.0663691 0.788823 0.548537 0.0983
H 0.316391 0.538831 0.548418 0.0983
H 0.316385 0.78878 0.548496 0.0983
H 0.14145 0.629969 0.53077 0.0983
H 0.141455 0.879905 0.530802 0.0983
H 0.391449 0.629943 0.53074 0.0983
H 0.391455 0.879881 0.530773 0.0983
H 0.0971436 0.571548 0.989551 0.0983
H 0.0971521 0.821615 0.989483 0.0983
H 0.347149 0.571522 0.989522 0.0983
H 0.347157 0.821587 0.989454 0.0983
H 0.143929 0.575493 0.992911 0.0983
H 0.143936 0.825566 0.99285 0.0983
H 0.393934 0.575471 0.992882 0.0983
H 0.393941 0.825542 0.992821 0.0983
H 0.0760097 0.643961 0.641502 0.0983
H 0.0759252 0.893983 0.641502 0.0983
H 0.326016 0.643933 0.641472 0.0983
H 0.325933 0.893955 0.641473 0.0983
H 0.03931 0.658789 0.611035 0.0983
H 0.0392753 0.908836 0.610961 0.0983
H 0.289311 0.658756 0.611011 0.0983
H 0.289277 0.908802 0.61094 0.0983
H 0.0231112 0.718594 0.625826 0.31454
H 0.0231168 0.968639 0.625708 0.31454
H 0.273107 0.718563 0.625804 0.31454
H 0.273112 0.968608 0.625689 0.31454
H 0.0553055 0.725095 0.588056 0.31454
H 0.0553441 0.975119 0.587973 0.31454
H 0.305294 0.725061 0.588022 0.31454
H 0.305332 0.975084 0.587941 0.31454
H 0.0634512 0.696892 0.677498 0.0983
H 0.0634198 0.946941 0.677439 0.0983
H 0.313455 0.696864 0.677466 0.0983
H 0.313422 0.946912 0.67741 0.0983
H 0.0995954 0.706769 0.642285 0.0983
H 0.0995854 0.956776 0.64224 0.0983
H 0.349594 0.706743 0.642248 0.0983
H 0.349584 0.95675 0.642206 0.0983
H 0.0673201 0.674357 0.808563 0.0983
H 0.0673288 0.924355 0.808489 0.0983
H 0.317327 0.674343 0.80854 0.0983
H 0.317336 0.924341 0.808466 0.0983
H 0.0691906 0.611053 0.560665 0.31454
H 0.0692079 0.861007 0.560745 0.31454
H 0.319192 0.611022 0.560636 0.31454
H 0.31921 0.860977 0.560716 0.31454
H 0.147708 0.510301 0.771728 0.0983
H 0.147722 0.760286 0.771787 0.0983
H 0.397706 0.510292 0.771697 0.0983
H 0.39772 0.760277 0.771756 0.0983
H 0.0752958 0.498106 0.808022 0.31454
H 0.0753137 0.748111 0.808109 0.31454
H 0.32529 0.498092 0.807983 0.31454
H 0.325308 0.748097 0.808069 0.31454
H 0.101403 0.602984 0.867731 0.0983
H 0.101402 0.853049 0.867714 0.0983
H 0.351397 0.602952 0.867718 0.0983
H 0.351396 0.853016 0.8677 0.0983
H 0.0720377 0.612936 0.823023 0.0983
H 0.0720252 0.862925 0.822985 0.0983
H 0.322053 0.61293 0.823 0.0983
H 0.322041 0.86292 0.822961 0.0983
H 0.130956 0.698237 0.918489 0.0983
H 0.130935 0.948309 0.918415 0.0983
H 0.380956 0.698225 0.918471 0.0983
H 0.380936 0.948295 0.918398 0.0983
H 0.0713943 0.545863 0.872456 0.0983
H 0.0714694 0.795912 0.872555 0.0983
H 0.321351 0.545843 0.872398 0.0983
H 0.321422 0.79589 0.872492 0.0983
H 0.0427953 0.556546 0.827813 0.0983
H 0.0428265 0.806514 0.82792 0.0983
H 0.292783 0.556553 0.827737 0.0983
H 0.292813 0.806523 0.827836 0.0983
H 0.105507 0.696578 0.745872 0.0983
H 0.105497 0.94659 0.745795 0.0983
H 0.35552 0.696558 0.74585 0.0983
H 0.355511 0.946571 0.745774 0.0983
H 0.151448 0.701503 0.755622 0.0983
H 0.15144 0.951518 0.755532 0.0983
H 0.401458 0.701493 0.75561 0.0983
H 0.401452 0.951509 0.755522 0.0983
H 0.172821 0.655984 0.5882 0.31454
H 0.172807 0.905929 0.588214 0.31454
H 0.42281 0.655971 0.588182 0.31454
H 0.422795 0.905918 0.588199 0.31454
H 0.148448 0.640017 0.629876 0.31454
H 0.148445 0.889983 0.629914 0.31454
H 0.398442 0.639998 0.62986 0.31454
H 0.398439 0.889965 0.6299 0.31454
H 0.00514583 0.687049 0.843404 0.0983
H 0.0051382 0.937075 0.843334 0.0983
H 0.255157 0.687073 0.843389 0.0983
H 0.255149 0.937099 0.843319 0.0983
H 0.19138 0.71145 0.952126 0.0983
H 0.191373 0.961503 0.952047 0.0983
H 0.441354 0.711427 0.952104 0.0983
H 0.441348 0.961477 0.952027 0.0983
H 0.0164564 0.620366 0.969793 0.0983
H 0.0164618 0.87043 0.969761 0.0983
H 0.266449 0.620346 0.969781 0.0983
H 0.266455 0.870409 0.969748 0.0983
H 0.222137 0.678764 0.511017 0.0983
H 0.222146 0.928697 0.511086 0.0983
H 0.472124 0.678754 0.511009 0.0983
H 0.472132 0.92869 0.511077 0.0983
H 0.0189256 0.674834 0.507671 0.0983
H 0.0189334 0.924761 0.507732 0.0983
H 0.268924 0.674817 0.507647 0.0983
H 0.268931 0.924744 0.507708 0.0983
H 0.201024 0.606358 0.859068 0.0983
H 0.200939 0.856336 0.859068 0.0983
H 0.451043 0.606352 0.859047 0.0983
H 0.450962 0.85633 0.859044 0.0983
H 0.164315 0.59154 0.889539 0.0983
H 0.16428 0.841494 0.889611 0.0983
H 0.414325 0.591544 0.889506 0.0983
H 0.414291 0.841499 0.889574 0.0983
H 0.14811 0.531735 0.874754 0.31454
H 0.148115 0.78169 0.874872 0.31454
H 0.398108 0.53174 0.874715 0.31454
H 0.398112 0.781696 0.874828 0.31454
H 0.180296 0.525233 0.912525 0.31454
H 0.180334 0.775209 0.912608 0.31454
H 0.43028 0.525236 0.912505 0.31454
H 0.430316 0.775213 0.912584 0.31454
H 0.188458 0.553428 0.823077 0.0983
H 0.188426 0.80338 0.823136 0.0983
H 0.438476 0.553424 0.823058 0.0983
H 0.438443 0.803376 0.823113 0.0983
H 0.224597 0.543545 0.858285 0.0983
H 0.224587 0.793538 0.858329 0.0983
H 0.474603 0.543533 0.858281 0.0983
H 0.474592 0.793526 0.858321 0.0983
H 0.192321 0.575951 0.692009 0.0983
H 0.19233 0.825953 0.692084 0.0983
H 0.442288 0.575906 0.691977 0.0983
H 0.442297 0.825908 0.692051 0.0983
H 0.194188 0.639266 0.939913 0.31454
H 0.194206 0.889311 0.939833 0.31454
H 0.444188 0.639264 0.939893 0.31454
H 0.444204 0.889307 0.939813 0.31454
H 0.0227091 0.740041 0.728817 0.0983
H 0.0227236 0.990056 0.728759 0.0983
H 0.272704 0.739999 0.728822 0.0983
H 0.272718 0.990014 0.728763 0.0983
H 0.200289 0.752205 0.69256 0.31454
H 0.200307 0.00219978 0.692473 0.31454
H 0.450283 0.752191 0.692538 0.31454
H 0.4503 0.00218718 0.692454 0.31454
H 0.226399 0.647339 0.632819 0.0983
H 0.226398 0.897275 0.632837 0.0983
H 0.476392 0.647336 0.63279 0.0983
H 0.476391 0.897274 0.632808 0.0983
H 0.197046 0.63737 0.677542 0.0983
H 0.197034 0.88738 0.67758 0.0983
H 0.447051 0.637347 0.677515 0.0983
H 0.44704 0.887357 0.677554 0.0983
H 0.00593481 0.552043 0.582099 0.0983
H 0.00591422 0.801971 0.582173 0.0983
H 0.255967 0.552073 0.58207 0.0983
H 0.255946 0.802002 0.582143 0.0983
H 0.196363 0.704455 0.628138 0.0983
H 0.196436 0.954407 0.628041 0.0983
H 0.446332 0.704444 0.628137 0.0983
H 0.446401 0.954398 0.628045 0.0983
H 0.167785 0.693752 0.672802 0.0983
H 0.167815 0.943784 0.672698 0.0983
H 0.417772 0.693723 0.672811 0.0983
H 0.417802 0.943753 0.672714 0.0983
H 0.230506 0.553729 0.754692 0.0983
H 0.230497 0.803717 0.754769 0.0983
H 0.480488 0.553714 0.754678 0.0983
H 0.48048 0.803701 0.754754 0.0983
H 0.0264374 0.548831 0.744991 0.0983
H 0.0264291 0.798816 0.745081 0.0983
H 0.276448 0.548798 0.744926 0.0983
H 0.276441 0.798782 0.745016 0.0983
C 0.122593 0.557481 0.62317 0.25189
C 0.122586 0.807445 0.623242 0.25189
C 0.372593 0.557456 0.62314 0.25189
C 0.372586 0.80742 0.623212 0.25189
C 0.0902911 0.543751 0.567247 -0.09298
C 0.0902842 0.793701 0.567324 -0.09298
C 0.340304 0.543712 0.56721 -0.09298
C 0.340297 0.793664 0.567287 -0.09298
C 0.11927 0.561352 0.552749 0.18052
C 0.119265 0.811296 0.552819 0.18052
C 0.369277 0.561325 0.552719 0.18052
C 0.369272 0.81127 0.552788 0.18052
C 0.106994 0.636074 0.976479 0.6158
C 0.106997 0.886148 0.976439 0.6158
C 0.356993 0.636048 0.976451 0.6158
C 0.356996 0.886121 0.97641 0.6158
C 0.11544 0.620049 0.519544 0.04907
C 0.115442 0.869986 0.51959 0.04907
C 0.36544 0.620021 0.519513 0.04907
C 0.365443 0.86996 0.51956 0.04907
C 0.11894 0.581175 0.511159 -0.30643
C 0.118934 0.831109 0.51122 -0.30643
C 0.368944 0.581147 0.511127 -0.30643
C 0.368939 0.831083 0.511189 -0.30643
C 0.0675321 0.663697 0.618525 -0.30643
C 0.0674959 0.913717 0.618493 -0.30643
C 0.317533 0.663667 0.618495 -0.30643
C 0.317497 0.913687 0.618465 -0.30643
C 0.0715591 0.698773 0.642308 0.12371
C 0.0715427 0.9488 0.642252 0.12371
C 0.321559 0.698745 0.642275 0.12371
C 0.321542 0.948771 0.642221 0.12371
C 0.12036 0.696523 0.813965 0.18052
C 0.120366 0.946529 0.813885 0.18052
C 0.370364 0.696515 0.813948 0.18052
C 0.370369 0.946522 0.813868 0.18052
C 0.0905506 0.680289 0.828238 -0.09298
C 0.090557 0.930295 0.828165 -0.09298
C 0.340557 0.680275 0.828216 -0.09298
C 0.340564 0.930282 0.828143 -0.09298
C 0.111031 0.507054 0.718636 0.6158
C 0.111031 0.757037 0.718712 0.6158
C 0.36103 0.507031 0.718604 0.6158
C 0.36103 0.757013 0.718679 0.6158
C 0.121532 0.498615 0.765019 0.04907
C 0.121542 0.748604 0.765092 0.04907
C 0.371532 0.498601 0.76499 0.04907
C 0.371542 0.74859 0.765062 0.04907
C 0.0889436 0.659159 0.576454 0.57738
C 0.0889432 0.909132 0.576457 0.57738
C 0.33894 0.65913 0.57642 0.57738
C 0.33894 0.909104 0.576425 0.57738
C 0.0746806 0.598496 0.853645 0.12371
C 0.074683 0.848523 0.853638 0.12371
C 0.324677 0.598481 0.853616 0.12371
C 0.324679 0.848507 0.853607 0.12371
C 0.122464 0.694255 0.884482 0.25189
C 0.122452 0.944303 0.884408 0.25189
C 0.372467 0.69424 0.884462 0.25189
C 0.372456 0.944288 0.88439 0.25189
C 0.0695912 0.560605 0.841932 -0.30643
C 0.0696278 0.810616 0.842002 -0.30643
C 0.319574 0.560595 0.84188 -0.30643
C 0.319608 0.810606 0.841946 -0.30643
C 0.125106 0.709618 0.768153 -0.30643
C 0.125099 0.959629 0.768072 -0.30643
C 0.375113 0.709605 0.768133 -0.30643
C 0.375107 0.959617 0.768053 -0.30643
C 0.0962838 0.546735 0.809139 0.57738
C 0.0963135 0.796735 0.809209 0.57738
C 0.346277 0.546722 0.809103 0.57738
C 0.346305 0.796722 0.809169 0.57738
C 0.997576 0.692814 0.877408 0.25189
C 0.997569 0.94285 0.877336 0.25189
C 0.247594 0.692832 0.877397 0.25189
C 0.247587 0.942869 0.877325 0.25189
C 0.215294 0.706571 0.93333 -0.09298
C 0.215287 0.956621 0.933253 -0.09298
C 0.465278 0.706566 0.933321 -0.09298
C 0.465272 0.956613 0.933245 -0.09298
C 0.24427 0.688962 0.947818 0.18052
C 0.244265 0.939018 0.947748 0.18052
C 0.494259 0.688969 0.947817 0.18052
C 0.494254 0.939022 0.947748 0.18052
C 0.231996 0.614237 0.524082 0.6158
C 0.231999 0.864163 0.524123 0.6158
C 0.481995 0.614228 0.524064 0.6158
C 0.481998 0.864158 0.524106 0.6158
C 0.240439 0.630265 0.981018 0.04907
C 0.240441 0.880328 0.980972 0.04907
C 0.490435 0.630266 0.981006 0.04907
C 0.490437 0.880326 0.980959 0.04907
C 0.243936 0.669139 0.989407 -0.30643
C 0.243931 0.919204 0.989345 -0.30643
C 0.493925 0.66914 0.989401 -0.30643
C 0.49392 0.919202 0.989339 -0.30643
C 0.192538 0.586625 0.882047 -0.30643
C 0.192501 0.836606 0.882078 -0.30643
C 0.442548 0.586622 0.882026 -0.30643
C 0.442512 0.836603 0.882054 -0.30643
C 0.196563 0.551547 0.858266 0.12371
C 0.196546 0.80152 0.858322 0.12371
C 0.44657 0.551542 0.85825 0.12371
C 0.446553 0.801516 0.858302 0.12371
C 0.245361 0.55378 0.686594 0.18052
C 0.245367 0.803773 0.686674 0.18052
C 0.495347 0.553774 0.686584 0.18052
C 0.495353 0.803766 0.686662 0.18052
C 0.215554 0.570019 0.672329 -0.09298
C 0.21556 0.820013 0.672403 -0.09298
C 0.46553 0.56999 0.672308 -0.09298
C 0.465537 0.819984 0.672381 -0.09298
C 0.23603 0.743255 0.781928 0.6158
C 0.23603 0.993272 0.781853 0.6158
C 0.48603 0.743239 0.781908 0.6158
C 0.48603 0.993258 0.781834 0.6158
C 0.496523 0.751678 0.73552 0.04907
C 0.496533 0.00169013 0.735449 0.04907
C 0.246529 0.751689 0.735541 0.04907
C 0.246539 0.00170071 0.735468 0.04907
C 0.213943 0.591159 0.924117 0.57738
C 0.213943 0.841185 0.924113 0.57738
C 0.463945 0.591156 0.924103 0.57738
C 0.463944 0.841181 0.924097 0.57738
C 0.199678 0.651817 0.646924 0.12371
C 0.19968 0.90179 0.646932 0.12371
C 0.449672 0.651803 0.646903 0.12371
C 0.449674 0.901777 0.646913 0.12371
C 0.997446 0.55604 0.616109 0.25189
C 0.997434 0.805992 0.616182 0.25189
C 0.247473 0.556056 0.616079 0.25189
C 0.247462 0.806008 0.616153 0.25189
C 0.194577 0.689704 0.658657 -0.30643
C 0.194613 0.939693 0.658588 -0.30643
C 0.444561 0.689687 0.658652 -0.30643
C 0.444595 0.939676 0.658587 -0.30643
C 0.250105 0.540686 0.732405 -0.30643
C 0.250099 0.790675 0.732486 -0.30643
C 0.500091 0.540677 0.732393 -0.30643
C 0.500086 0.790664 0.732471 -0.30643
C 0.221276 0.703573 0.691432 0.57738
C 0.221305 0.953573 0.691364 0.57738
C 0.471266 0.703558 0.691419 0.57738
C 0.471294 0.953559 0.691354 0.57738
N 0.0482858 0.610504 0.885822 -0.64634
N 0.0482799 0.860545 0.885795 -0.64634
N 0.298277 0.610492 0.885783 -0.64634
N 0.29827 0.860533 0.885754 -0.64634
N 0.0919394 0.678718 0.872552 -0.44443
N 0.0919357 0.928751 0.872482 -0.44443
N 0.341946 0.678699 0.872529 -0.44443
N 0.341943 0.928732 0.87246 -0.44443
N 0.0923879 0.541585 0.611419 -0.44443
N 0.0923796 0.791548 0.611498 -0.44443
N 0.342396 0.541548 0.611383 -0.44443
N 0.342388 0.791512 0.611461 -0.44443
N 0.139649 0.56975 0.588163 -0.44443
N 0.139644 0.819702 0.588229 -0.44443
N 0.389649 0.569732 0.588136 -0.44443
N 0.389644 0.819684 0.588202 -0.44443
N 0.0497917 0.724493 0.621951 -0.64634
N 0.0498034 0.974525 0.621862 -0.64634
N 0.299787 0.724461 0.621919 -0.64634
N 0.299798 0.974494 0.621832 -0.64634
N 0.140423 0.705641 0.849379 -0.44443
N 0.140417 0.955673 0.8493 -0.44443
N 0.390425 0.705634 0.849362 -0.44443
N 0.390419 0.955666 0.849284 -0.44443
N 0.0884611 0.628858 0.553276 -0.43464
N 0.0884716 0.87881 0.553327 -0.43464
N 0.338461 0.628828 0.553245 -0.43464
N 0.338471 0.878782 0.553296 -0.43464
N 0.0957748 0.513229 0.796822 -0.43464
N 0.0957958 0.763227 0.796902 -0.43464
N 0.345772 0.513215 0.796789 -0.43464
N 0.345792 0.763213 0.796867 -0.43464
N 0.173281 0.63981 0.61476 -0.64634
N 0.173275 0.889769 0.614788 -0.64634
N 0.423274 0.639795 0.614741 -0.64634
N 0.423267 0.889755 0.614771 -0.64634
N 0.216948 0.571597 0.628017 -0.44443
N 0.216944 0.821563 0.628086 -0.44443
N 0.466944 0.571588 0.627999 -0.44443
N 0.466941 0.821556 0.628068 -0.44443
N 0.217391 0.708737 0.889157 -0.44443
N 0.217383 0.958773 0.889079 -0.44443
N 0.467391 0.708745 0.889151 -0.44443
N 0.467383 0.958781 0.889074 -0.44443
N 0.0146357 0.680562 0.912419 -0.44443
N 0.0146308 0.93061 0.912354 -0.44443
N 0.264648 0.680558 0.912398 -0.44443
N 0.264644 0.930606 0.912332 -0.44443
N 0.174789 0.525833 0.878631 -0.64634
N 0.1748 0.7758 0.878719 -0.64634
N 0.424784 0.525834 0.878607 -0.64634
N 0.424794 0.775802 0.878692 -0.64634
N 0.0154207 0.544687 0.651215 -0.44443
N 0.0154139 0.794655 0.651294 -0.44443
N 0.265428 0.544663 0.651177 -0.44443
N 0.265421 0.794631 0.651256 -0.44443
N 0.21346 0.621459 0.947295 -0.43464
N 0.21347 0.871506 0.947244 -0.43464
N 0.463458 0.621458 0.94728 -0.43464
N 0.463469 0.871503 0.947228 -0.43464
N 0.220769 0.737079 0.703749 -0.43464
N 0.22079 0.987081 0.70367 -0.43464
N 0.470762 0.737066 0.70373 -0.43464
N 0.470783 0.987068 0.703653 -0.43464
O 0.0778413 0.651252 0.971438 -0.59613
O 0.0778383 0.901315 0.971391 -0.59613
O 0.32784 0.651225 0.97141 -0.59613
O 0.327837 0.901286 0.971362 -0.59613
O 0.127732 0.630573 0.942209 -0.58866
O 0.127747 0.880667 0.942176 -0.58866
O 0.377734 0.630553 0.942182 -0.58866
O 0.377749 0.880644 0.942148 -0.58866
O 0.0793952 0.515561 0.710554 -0.59613
O 0.0793907 0.765533 0.710636 -0.59613
O 0.329392 0.515527 0.710518 -0.59613
O 0.329387 0.765498 0.710599 -0.59613
O 0.109109 0.683977 0.563207 -0.58866
O 0.109113 0.933938 0.563183 -0.58866
O 0.3591 0.683951 0.563168 -0.58866
O 0.359105 0.933913 0.563147 -0.58866
O 0.133403 0.502034 0.685917 -0.58866
O 0.133397 0.752016 0.685986 -0.58866
O 0.383404 0.502012 0.685887 -0.58866
O 0.383398 0.751993 0.685956 -0.58866
O 0.119553 0.567113 0.79168 -0.58866
O 0.11959 0.817104 0.791745 -0.58866
O 0.369549 0.5671 0.791648 -0.58866
O 0.369583 0.81709 0.791709 -0.58866
O 0.202843 0.599064 0.529135 -0.59613
O 0.20284 0.849002 0.529182 -0.59613
O 0.452843 0.599052 0.529114 -0.59613
O 0.45284 0.848993 0.529163 -0.59613
O 0.00274356 0.619745 0.558356 -0.58866
O 0.00275929 0.869652 0.558388 -0.58866
O 0.252737 0.619732 0.558344 -0.58866
O 0.252752 0.869639 0.558377 -0.58866
O 0.204392 0.734761 0.790024 -0.59613
O 0.204387 0.98479 0.789942 -0.59613
O 0.454391 0.734751 0.790009 -0.59613
O 0.454387 0.984781 0.789929 -0.59613
O 0.484105 0.566335 0.937352 -0.58866
O 0.484109 0.816372 0.937371 -0.58866
O 0.234106 0.566337 0.937359 -0.58866
O 0.23411 0.816376 0.937382 -0.58866
O 0.0084108 0.748262 0.814634 -0.58866
O 0.00840471 0.998281 0.814565 -0.58866
O 0.258404 0.748271 0.814639 -0.58866
O 0.258398 0.99829 0.814569 -0.58866
O 0.494533 0.683176 0.708874 -0.58866
O 0.494568 0.933187 0.708814 -0.58866
O 0.244546 0.683191 0.708882 -0.58866
O 0.244582 0.933201 0.708819 -0.58866
Zn 0.559324 0.0190361 0.148845 0.82244
Zn 0.559332 0.269069 0.148764 0.82244
Zn 0.809322 0.0190522 0.148855 0.82244
Zn 0.80933 0.269084 0.148772 0.82244
Zn 0.6834 0.0947189 0.0907772 0.82244
Zn 0.683404 0.344764 0.0907238 0.82244
Zn 0.933403 0.0947174 0.0907828 0.82244
Zn 0.933407 0.344765 0.0907301 0.82244
Zn 0.684319 0.23129 0.351717 0.82244
Zn 0.684327 0.481258 0.351799 0.82244
Zn 0.934322 0.231281 0.351707 0.82244
Zn 0.93433 0.481249 0.351791 0.82244
Zn 0.558401 0.15561 0.409791 0.82244
Zn 0.558405 0.405566 0.409845 0.82244
Zn 0.808401 0.155622 0.409795 0.82244
Zn 0.808405 0.405576 0.409848 0.82244
H 0.547549 0.0943365 0.41218 0.31454
H 0.547563 0.344284 0.412197 0.31454
H 0.797565 0.0943483 0.412205 0.31454
H 0.797576 0.344295 0.412218 0.31454
H 0.523428 0.11036 0.370322 0.31454
H 0.523431 0.360327 0.370363 0.31454
H 0.773436 0.110359 0.370345 0.31454
H 0.773438 0.360326 0.370381 0.31454
H 0.630144 0.0632471 0.157331 0.0983
H 0.630151 0.313274 0.157262 0.0983
H 0.880138 0.0632679 0.157337 0.0983
H 0.880145 0.313294 0.157268 0.0983
H 0.566497 0.0387673 0.0485303 0.0983
H 0.566505 0.288817 0.0484534 0.0983
H 0.816485 0.0387918 0.0485376 0.0983
H 0.816492 0.288844 0.0484597 0.0983
H 0.64143 0.129839 0.030704 0.0983
H 0.641425 0.379899 0.0306693 0.0983
H 0.891436 0.129852 0.0307044 0.0983
H 0.89143 0.379914 0.0306725 0.0983
H 0.596961 0.0717228 0.489476 0.0983
H 0.596952 0.321661 0.489543 0.0983
H 0.846954 0.0717477 0.489482 0.0983
H 0.846946 0.321682 0.48955 0.0983
H 0.643774 0.0755235 0.492687 0.0983
H 0.643766 0.325455 0.492748 0.0983
H 0.893769 0.0755399 0.492694 0.0983
H 0.893761 0.325467 0.492754 0.0983
H 0.57571 0.143941 0.141437 0.0983
H 0.575792 0.393918 0.141433 0.0983
H 0.825747 0.143962 0.141454 0.0983
H 0.825827 0.39394 0.141453 0.0983
H 0.539138 0.158884 0.110826 0.0983
H 0.539171 0.408839 0.110893 0.0983
H 0.789161 0.158891 0.110855 0.0983
H 0.789194 0.408846 0.110924 0.0983
H 0.523079 0.218689 0.125639 0.31454
H 0.523074 0.468645 0.125751 0.31454
H 0.773095 0.218697 0.125634 0.31454
H 0.773089 0.468653 0.125749 0.31454
H 0.555334 0.22514 0.0879347 0.31454
H 0.555298 0.475117 0.088012 0.31454
H 0.805357 0.225155 0.0879393 0.31454
H 0.805319 0.475132 0.0880202 0.31454
H 0.56333 0.196915 0.177386 0.0983
H 0.563363 0.446867 0.17744 0.0983
H 0.813345 0.196937 0.177396 0.0983
H 0.813376 0.446888 0.177453 0.0983
H 0.599522 0.206703 0.142209 0.0983
H 0.599534 0.456695 0.142247 0.0983
H 0.849539 0.206725 0.14222 0.0983
H 0.849548 0.456718 0.142264 0.0983
H 0.567437 0.17422 0.308392 0.0983
H 0.567428 0.424222 0.308466 0.0983
H 0.81743 0.174226 0.308388 0.0983
H 0.817421 0.424228 0.308462 0.0983
H 0.569248 0.110879 0.0608763 0.31454
H 0.569231 0.360921 0.0607959 0.31454
H 0.819245 0.110907 0.0608717 0.31454
H 0.819228 0.360951 0.0607918 0.31454
H 0.647739 0.0102415 0.271734 0.0983
H 0.647725 0.260258 0.271678 0.0983
H 0.897742 0.0102458 0.271744 0.0983
H 0.897727 0.26026 0.271687 0.0983
H 0.575337 0.998019 0.308068 0.31454
H 0.57532 0.248015 0.307984 0.31454
H 0.825336 0.998031 0.308071 0.31454
H 0.825319 0.248026 0.307985 0.31454
H 0.601376 0.102879 0.367939 0.0983
H 0.601377 0.352818 0.367958 0.0983
H 0.851385 0.102895 0.367953 0.0983
H 0.851385 0.35283 0.367971 0.0983
H 0.572243 0.112837 0.322992 0.0983
H 0.572254 0.362848 0.323032 0.0983
H 0.822246 0.112841 0.323007 0.0983
H 0.822259 0.362852 0.323046 0.0983
H 0.630889 0.198365 0.418382 0.0983
H 0.630909 0.448298 0.418455 0.0983
H 0.880887 0.198376 0.418374 0.0983
H 0.880907 0.448306 0.418447 0.0983
H 0.571375 0.045798 0.372494 0.0983
H 0.571307 0.295752 0.372403 0.0983
H 0.821403 0.0458088 0.372525 0.0983
H 0.821327 0.295761 0.372427 0.0983
H 0.542833 0.056478 0.32779 0.0983
H 0.542804 0.306508 0.327695 0.0983
H 0.792847 0.0564774 0.32783 0.0983
H 0.792815 0.30651 0.327724 0.0983
H 0.605577 0.196516 0.245736 0.0983
H 0.605587 0.446502 0.245811 0.0983
H 0.85556 0.196532 0.245732 0.0983
H 0.85557 0.446519 0.245808 0.0983
H 0.651514 0.201486 0.25549 0.0983
H 0.651521 0.451469 0.255579 0.0983
H 0.9015 0.20149 0.255474 0.0983
H 0.901509 0.451474 0.255565 0.0983
H 0.672551 0.155993 0.0883751 0.31454
H 0.672563 0.406046 0.0883595 0.31454
H 0.922574 0.155993 0.0883672 0.31454
H 0.922585 0.406047 0.0883547 0.31454
H 0.648427 0.139979 0.130243 0.31454
H 0.648429 0.390011 0.130205 0.31454
H 0.898441 0.139993 0.130236 0.31454
H 0.898443 0.390026 0.1302 0.31454
H 0.505133 0.187034 0.34323 0.0983
H 0.50514 0.437008 0.3433 0.0983
H 0.755152 0.187083 0.343237 0.0983
H 0.755158 0.437056 0.343306 0.0983
H 0.691463 0.211539 0.452031 0.0983
H 0.691471 0.461489 0.452108 0.0983
H 0.941474 0.211567 0.452036 0.0983
H 0.941481 0.461514 0.452115 0.0983
H 0.51643 0.120476 0.469824 0.0983
H 0.516424 0.370415 0.469858 0.0983
H 0.766433 0.120497 0.469852 0.0983
H 0.766427 0.370436 0.469885 0.0983
H 0.721934 0.178598 0.0110919 0.0983
H 0.721925 0.428662 0.0110246 0.0983
H 0.971944 0.178588 0.0111007 0.0983
H 0.971935 0.428655 0.0110327 0.0983
H 0.518741 0.174787 0.00786012 0.0983
H 0.518735 0.424857 0.00779868 0.0983
H 0.768749 0.174811 0.00787579 0.0983
H 0.768742 0.424881 0.00781568 0.0983
H 0.700766 0.106377 0.359119 0.0983
H 0.700844 0.356399 0.359122 0.0983
H 0.950761 0.106372 0.359126 0.0983
H 0.950845 0.356394 0.359125 0.0983
H 0.66417 0.0914565 0.389714 0.0983
H 0.664201 0.3415 0.389648 0.0983
H 0.914171 0.0914434 0.389727 0.0983
H 0.914205 0.341489 0.389654 0.0983
H 0.648093 0.0316586 0.374919 0.31454
H 0.648087 0.281702 0.374807 0.31454
H 0.898107 0.0316477 0.374939 0.31454
H 0.898101 0.281692 0.374821 0.31454
H 0.680332 0.0251906 0.41263 0.31454
H 0.680295 0.275213 0.412552 0.31454
H 0.930356 0.0251753 0.412634 0.31454
H 0.930318 0.275199 0.412552 0.31454
H 0.688376 0.0534048 0.323177 0.0983
H 0.688407 0.303453 0.323123 0.0983
H 0.93838 0.0533979 0.323183 0.0983
H 0.938412 0.303446 0.323125 0.0983
H 0.724549 0.0436051 0.358371 0.0983
H 0.724558 0.293613 0.35833 0.0983
H 0.974559 0.0436037 0.35837 0.0983
H 0.974569 0.29361 0.358325 0.0983
H 0.692414 0.0760986 0.192177 0.0983
H 0.692405 0.326097 0.192104 0.0983
H 0.942438 0.0761444 0.19221 0.0983
H 0.94243 0.326142 0.192136 0.0983
H 0.694244 0.13944 0.439696 0.31454
H 0.694228 0.389397 0.439776 0.31454
H 0.944257 0.139441 0.439689 0.31454
H 0.94424 0.389396 0.439769 0.31454
H 0.522732 0.240061 0.228768 0.0983
H 0.522718 0.490045 0.228826 0.0983
H 0.772735 0.240088 0.228796 0.0983
H 0.772721 0.490073 0.228852 0.0983
H 0.700331 0.252309 0.192495 0.31454
H 0.700313 0.502314 0.192579 0.31454
H 0.950358 0.252334 0.192451 0.31454
H 0.95034 0.502339 0.192538 0.31454
H 0.726375 0.147449 0.132603 0.0983
H 0.726375 0.397513 0.132583 0.0983
H 0.976389 0.147444 0.132618 0.0983
H 0.97639 0.39751 0.1326 0.0983
H 0.697242 0.137493 0.177558 0.0983
H 0.697255 0.387482 0.177519 0.0983
H 0.94724 0.137518 0.17757 0.0983
H 0.947253 0.387507 0.177532 0.0983
H 0.505908 0.0519514 0.0821723 0.0983
H 0.505929 0.302021 0.0821002 0.0983
H 0.755903 0.0519775 0.0821903 0.0983
H 0.755923 0.302046 0.0821173 0.0983
H 0.696377 0.204534 0.12806 0.0983
H 0.696303 0.454581 0.128155 0.0983
H 0.946425 0.204538 0.128024 0.0983
H 0.946349 0.454586 0.128123 0.0983
H 0.667832 0.193853 0.17277 0.0983
H 0.667802 0.44382 0.172871 0.0983
H 0.917849 0.193886 0.172716 0.0983
H 0.917817 0.443854 0.172822 0.0983
H 0.730545 0.0537998 0.254831 0.0983
H 0.730556 0.303814 0.254755 0.0983
H 0.980542 0.0538075 0.254851 0.0983
H 0.980553 0.30382 0.254775 0.0983
H 0.526481 0.0488173 0.245057 0.0983
H 0.526488 0.298834 0.244969 0.0983
H 0.776487 0.048844 0.245081 0.0983
H 0.776496 0.29886 0.244991 0.0983
C 0.622618 0.0574665 0.123317 0.25189
C 0.622624 0.307502 0.123247 0.25189
C 0.872606 0.0574929 0.123325 0.25189
C 0.872612 0.307529 0.123254 0.25189
C 0.590394 0.0436591 0.0673499 -0.09298
C 0.590401 0.293705 0.0672744 -0.09298
C 0.840381 0.043686 0.0673587 -0.09298
C 0.840388 0.293735 0.0672823 -0.09298
C 0.61937 0.0612823 0.0528859 0.18052
C 0.619376 0.311335 0.0528175 0.18052
C 0.869361 0.0613018 0.052892 0.18052
C 0.869367 0.311357 0.0528234 0.18052
C 0.607066 0.136251 0.476465 0.6158
C 0.607063 0.386181 0.476507 0.6158
C 0.857072 0.136274 0.476471 0.6158
C 0.857068 0.386201 0.47651 0.6158
C 0.615378 0.119948 0.0195956 0.04907
C 0.615376 0.370006 0.0195481 0.04907
C 0.865381 0.119965 0.019597 0.04907
C 0.865379 0.370027 0.0195515 0.04907
C 0.619068 0.0810758 0.011276 -0.30643
C 0.619073 0.331137 0.011214 -0.30643
C 0.869063 0.0810926 0.0112797 -0.30643
C 0.869068 0.331157 0.0112183 -0.30643
C 0.56736 0.1637 0.118422 -0.30643
C 0.567395 0.413681 0.118449 -0.30643
C 0.817384 0.163716 0.118439 -0.30643
C 0.817418 0.413697 0.118469 -0.30643
C 0.571465 0.198772 0.142203 0.12371
C 0.571482 0.448745 0.142253 0.12371
C 0.821482 0.19879 0.142213 0.12371
C 0.821498 0.448764 0.142268 0.12371
C 0.62044 0.196455 0.313831 0.18052
C 0.620435 0.446448 0.31391 0.18052
C 0.870435 0.196458 0.313823 0.18052
C 0.87043 0.446452 0.313902 0.18052
C 0.590655 0.180168 0.328083 -0.09298
C 0.590649 0.430162 0.328156 -0.09298
C 0.840648 0.180177 0.328079 -0.09298
C 0.840642 0.430171 0.328152 -0.09298
C 0.611038 0.00697309 0.218679 0.6158
C 0.611038 0.256993 0.218606 0.6158
C 0.861041 0.0069942 0.218687 0.6158
C 0.861041 0.257012 0.218613 0.6158
C 0.621567 0.99854 0.265052 0.04907
C 0.621557 0.248553 0.264982 0.04907
C 0.871568 0.998551 0.265058 0.04907
C 0.871557 0.248562 0.264986 0.04907
C 0.588846 0.159084 0.0764229 0.57738
C 0.588846 0.409108 0.0764154 0.57738
C 0.838861 0.159102 0.0764326 0.57738
C 0.838861 0.409128 0.0764283 0.57738
C 0.574713 0.0984192 0.353654 0.12371
C 0.574711 0.348394 0.353665 0.12371
C 0.824723 0.0984278 0.353673 0.12371
C 0.82472 0.348401 0.353681 0.12371
C 0.622475 0.194268 0.384361 0.25189
C 0.622486 0.444222 0.384434 0.25189
C 0.872468 0.194281 0.384354 0.25189
C 0.872479 0.444234 0.384428 0.25189
C 0.569614 0.0605285 0.341956 -0.30643
C 0.56958 0.310518 0.341893 -0.30643
C 0.81963 0.0605351 0.341984 -0.30643
C 0.819593 0.310525 0.341915 -0.30643
C 0.625162 0.209569 0.268024 -0.30643
C 0.625169 0.459557 0.268103 -0.30643
C 0.875152 0.209577 0.268017 -0.30643
C 0.875159 0.459566 0.268098 -0.30643
C 0.596337 0.046646 0.30921 0.57738
C 0.596308 0.296647 0.309145 0.57738
C 0.846348 0.0466541 0.309231 0.57738
C 0.846318 0.296654 0.309163 0.57738
C 0.49763 0.192872 0.377241 0.25189
C 0.497637 0.442837 0.377313 0.25189
C 0.747613 0.192861 0.37725 0.25189
C 0.74762 0.442826 0.37732 0.25189
C 0.715366 0.206654 0.433212 -0.09298
C 0.715373 0.456607 0.433287 -0.09298
C 0.965369 0.206659 0.43321 -0.09298
C 0.965376 0.456609 0.433288 -0.09298
C 0.74435 0.189047 0.447681 0.18052
C 0.744356 0.438993 0.447749 0.18052
C 0.994357 0.189063 0.447699 0.18052
C 0.994363 0.439007 0.447769 0.18052
C 0.732069 0.114073 0.0240955 0.6158
C 0.732066 0.364144 0.0240547 0.6158
C 0.982077 0.11406 0.0240939 0.6158
C 0.982073 0.364135 0.0240542 0.6158
C 0.740375 0.130381 0.480967 0.04907
C 0.740373 0.380321 0.481014 0.04907
C 0.990382 0.130378 0.480968 0.04907
C 0.99038 0.380315 0.481014 0.04907
C 0.744049 0.169253 0.489289 -0.30643
C 0.744054 0.419191 0.489351 -0.30643
C 0.994057 0.16925 0.489295 -0.30643
C 0.994062 0.419185 0.489357 -0.30643
C 0.692394 0.0866254 0.382135 -0.30643
C 0.692427 0.336644 0.382107 -0.30643
C 0.942395 0.0866181 0.382142 -0.30643
C 0.942431 0.336637 0.38211 -0.30643
C 0.696495 0.0515495 0.358364 0.12371
C 0.69651 0.301576 0.358312 0.12371
C 0.946503 0.0515432 0.358368 0.12371
C 0.94652 0.30157 0.358312 0.12371
C 0.745428 0.0538794 0.18674 0.18052
C 0.745423 0.303886 0.18666 0.18052
C 0.995456 0.0539323 0.186773 0.18052
C 0.995451 0.303938 0.186693 0.18052
C 0.715638 0.0701546 0.172486 -0.09298
C 0.715631 0.320161 0.172413 -0.09298
C 0.965654 0.0701879 0.172509 -0.09298
C 0.965648 0.320194 0.172435 -0.09298
C 0.736039 0.243339 0.28187 0.6158
C 0.736039 0.49332 0.281943 0.6158
C 0.986042 0.243334 0.281859 0.6158
C 0.986042 0.493317 0.281935 0.6158
C 0.996566 0.251798 0.23549 0.04907
C 0.996555 0.501787 0.235563 0.04907
C 0.746561 0.251784 0.235496 0.04907
C 0.74655 0.501771 0.235566 0.04907
C 0.71386 0.0912389 0.424144 0.57738
C 0.713859 0.341214 0.42415 0.57738
C 0.963864 0.0912351 0.424148 0.57738
C 0.963864 0.341209 0.424152 0.57738
C 0.699713 0.151911 0.146896 0.12371
C 0.69971 0.401937 0.146886 0.12371
C 0.949725 0.151921 0.146897 0.12371
C 0.949722 0.401948 0.14689 0.12371
C 0.497498 0.0560754 0.116194 0.25189
C 0.497509 0.306123 0.116121 0.25189
C 0.747479 0.0560714 0.116211 0.25189
C 0.74749 0.306118 0.116138 0.25189
C 0.694614 0.189802 0.158597 -0.30643
C 0.694578 0.439812 0.158664 -0.30643
C 0.944636 0.189819 0.15857 -0.30643
C 0.944599 0.43983 0.15864 -0.30643
C 0.750142 0.040757 0.232541 -0.30643
C 0.750149 0.290769 0.232462 -0.30643
C 0.000146211 0.0407749 0.232562 -0.30643
C 0.000152987 0.290786 0.232481 -0.30643
C 0.721334 0.203681 0.191339 0.57738
C 0.721305 0.45368 0.191405 0.57738
C 0.971344 0.203698 0.191328 0.57738
C 0.971314 0.453698 0.191397 0.57738
N 0.54819 0.1105 0.385614 -0.64634
N 0.548196 0.36046 0.385644 -0.64634
N 0.7982 0.110507 0.385633 -0.64634
N 0.798205 0.360466 0.38566 -0.64634
N 0.592004 0.178642 0.372404 -0.44443
N 0.592007 0.428611 0.372473 -0.44443
N 0.841996 0.178657 0.372401 -0.44443
N 0.841999 0.428625 0.37247 -0.44443
N 0.592444 0.0415274 0.11153 -0.44443
N 0.592451 0.291563 0.111453 -0.44443
N 0.842428 0.0415593 0.11154 -0.44443
N 0.842436 0.291596 0.111462 -0.44443
N 0.639699 0.0697288 0.0883231 -0.44443
N 0.639703 0.319775 0.088258 -0.44443
N 0.88969 0.0697482 0.088329 -0.44443
N 0.889695 0.319796 0.0882638 -0.44443
N 0.549777 0.224539 0.121819 -0.64634
N 0.549766 0.474507 0.121902 -0.64634
N 0.799793 0.224553 0.121821 -0.64634
N 0.799781 0.474521 0.121908 -0.64634
N 0.640443 0.205656 0.349266 -0.44443
N 0.640449 0.455625 0.349344 -0.44443
N 0.890437 0.205663 0.349257 -0.44443
N 0.890444 0.455632 0.349336 -0.44443
N 0.588419 0.128739 0.053348 -0.43464
N 0.588409 0.378782 0.0532955 -0.43464
N 0.838424 0.128761 0.0533492 -0.43464
N 0.838413 0.378807 0.0532985 -0.43464
N 0.595821 0.0131424 0.296879 -0.43464
N 0.595801 0.263146 0.296803 -0.43464
N 0.845824 0.013153 0.296888 -0.43464
N 0.845803 0.263155 0.29681 -0.43464
N 0.67319 0.139834 0.114946 -0.64634
N 0.673195 0.389873 0.114917 -0.64634
N 0.923206 0.139839 0.114944 -0.64634
N 0.923212 0.38988 0.114917 -0.64634
N 0.716996 0.0716834 0.128166 -0.44443
N 0.716999 0.321715 0.128096 -0.44443
N 0.966979 0.0716584 0.12818 -0.44443
N 0.966983 0.321691 0.12811 -0.44443
N 0.717424 0.208783 0.389032 -0.44443
N 0.717432 0.458747 0.389109 -0.44443
N 0.967412 0.208753 0.389025 -0.44443
N 0.96742 0.458716 0.389104 -0.44443
N 0.514703 0.180614 0.412242 -0.44443
N 0.514708 0.430568 0.412308 -0.44443
N 0.764695 0.18061 0.412247 -0.44443
N 0.764699 0.430564 0.412312 -0.44443
N 0.674786 0.0257936 0.378746 -0.64634
N 0.674774 0.275825 0.378662 -0.64634
N 0.924801 0.0257827 0.378752 -0.64634
N 0.924789 0.275815 0.378664 -0.64634
N 0.51546 0.0446935 0.151293 -0.44443
N 0.515467 0.294726 0.151216 -0.44443
N 0.765445 0.0446885 0.151307 -0.44443
N 0.765451 0.29472 0.151228 -0.44443
N 0.713421 0.121583 0.447221 -0.43464
N 0.71341 0.371539 0.447272 -0.43464
N 0.963429 0.121582 0.44722 -0.43464
N 0.963419 0.371535 0.447271 -0.43464
N 0.720815 0.237184 0.203675 -0.43464
N 0.720795 0.487181 0.203752 -0.43464
N 0.970829 0.237203 0.203656 -0.43464
N 0.970808 0.487202 0.203735 -0.43464
O 0.577748 0.151109 0.471308 -0.59613
O 0.577751 0.401051 0.471356 -0.59613
O 0.827754 0.151133 0.471311 -0.59613
O 0.827757 0.401071 0.471358 -0.59613
O 0.627964 0.13103 0.442293 -0.58866
O 0.62795 0.380943 0.442328 -0.58866
O 0.87797 0.131051 0.442299 -0.58866
O 0.877955 0.38096 0.442331 -0.58866
O 0.579396 0.0154714 0.210621 -0.59613
O 0.5794 0.265502 0.210542 -0.59613
O 0.829399 0.0154911 0.210629 -0.59613
O 0.829403 0.26552 0.210548 -0.59613
O 0.608969 0.183905 0.0630935 -0.58866
O 0.608963 0.433942 0.0631105 -0.58866
O 0.858993 0.18392 0.0631101 -0.58866
O 0.858988 0.433958 0.0631321 -0.58866
O 0.633397 0.0019685 0.185942 -0.58866
O 0.633402 0.25199 0.185875 -0.58866
O 0.883403 0.00199771 0.185952 -0.58866
O 0.883409 0.252017 0.185884 -0.58866
O 0.619622 0.0670195 0.291773 -0.58866
O 0.619587 0.31703 0.291713 -0.58866
O 0.869639 0.0670263 0.291802 -0.58866
O 0.869602 0.317036 0.291739 -0.58866
O 0.702756 0.0992095 0.0292603 -0.59613
O 0.702759 0.349269 0.0292126 -0.59613
O 0.952762 0.0992007 0.0292612 -0.59613
O 0.952764 0.349263 0.0292145 -0.59613
O 0.502964 0.119268 0.0582358 -0.58866
O 0.50295 0.369357 0.0582014 -0.58866
O 0.752964 0.119299 0.0582633 -0.58866
O 0.752949 0.369388 0.05823 -0.58866
O 0.704398 0.234844 0.28994 -0.59613
O 0.704402 0.484815 0.29002 -0.59613
O 0.954401 0.234839 0.289926 -0.59613
O 0.954405 0.484811 0.290008 -0.59613
O 0.983987 0.0664146 0.437481 -0.58866
O 0.983982 0.316375 0.437458 -0.58866
O 0.733985 0.0664184 0.437473 -0.58866
O 0.733979 0.316381 0.437454 -0.58866
O 0.5084 0.248315 0.314572 -0.58866
O 0.508405 0.498296 0.31464 -0.58866
O 0.758399 0.248344 0.314598 -0.58866
O 0.758405 0.498323 0.314665 -0.58866
O 0.99462 0.18332 0.208775 -0.58866
O 0.994584 0.433311 0.208839 -0.58866
O 0.744619 0.183304 0.208769 -0.58866
O 0.744583 0.433294 0.208831 -0.58866
Zn 0.559319 0.0190601 0.648745 0.82244
Zn 0.559311 0.269028 0.648826 0.82244
Zn 0.809317 0.019077 0.648754 0.82244
Zn 0.809308 0.269045 0.648837 0.82244
Zn 0.683399 0.0946787 0.590624 0.82244
Zn 0.683395 0.344633 0.590677 0.82244
Zn 0.933402 0.0946796 0.590631 0.82244
Zn 0.933398 0.344632 0.590684 0.82244
Zn 0.684314 0.231269 0.851819 0.82244
Zn 0.684306 0.4813 0.851738 0.82244
Zn 0.934317 0.231257 0.85181 0.82244
Zn 0.934309 0.481289 0.851726 0.82244
Zn 0.5584 0.155653 0.909947 0.82244
Zn 0.558395 0.405698 0.909892 0.82244
Zn 0.808399 0.155663 0.909949 0.82244
Zn 0.808395 0.405709 0.909896 0.82244
H 0.547801 0.0943332 0.912346 0.31454
H 0.547785 0.344385 0.912328 0.31454
H 0.797812 0.0943432 0.912366 0.31454
H 0.797801 0.344397 0.912352 0.31454
H 0.523443 0.110315 0.870673 0.31454
H 0.52344 0.360349 0.87063 0.31454
H 0.773449 0.110314 0.87069 0.31454
H 0.773447 0.360347 0.870653 0.31454
H 0.63015 0.0632361 0.657168 0.0983
H 0.630143 0.313209 0.657236 0.0983
H 0.880144 0.0632576 0.657176 0.0983
H 0.880137 0.313231 0.657245 0.0983
H 0.566412 0.0388313 0.548429 0.0983
H 0.566405 0.288782 0.548505 0.0983
H 0.816399 0.0388604 0.548437 0.0983
H 0.816392 0.288808 0.548514 0.0983
H 0.641448 0.129964 0.53076 0.0983
H 0.641453 0.379904 0.530794 0.0983
H 0.891453 0.129981 0.530764 0.0983
H 0.891459 0.379918 0.530796 0.0983
H 0.597158 0.0715383 0.989541 0.0983
H 0.597166 0.3216 0.989473 0.0983
H 0.847151 0.0715581 0.989546 0.0983
H 0.84716 0.321624 0.989478 0.0983
H 0.643942 0.0754948 0.992902 0.0983
H 0.64395 0.325563 0.992841 0.0983
H 0.893936 0.0755063 0.992906 0.0983
H 0.893944 0.325579 0.992846 0.0983
H 0.575984 0.143944 0.641477 0.0983
H 0.575904 0.393967 0.641481 0.0983
H 0.826018 0.143967 0.641497 0.0983
H 0.825938 0.393989 0.641498 0.0983
H 0.539292 0.158779 0.611 0.0983
H 0.539259 0.408824 0.610934 0.0983
H 0.789314 0.158788 0.611031 0.0983
H 0.789282 0.408833 0.610963 0.0983
H 0.523095 0.218588 0.625816 0.31454
H 0.5231 0.468632 0.625705 0.31454
H 0.77311 0.218598 0.625814 0.31454
H 0.773117 0.468641 0.625698 0.31454
H 0.555284 0.225077 0.588032 0.31454
H 0.55532 0.4751 0.587955 0.31454
H 0.805306 0.225094 0.588041 0.31454
H 0.805344 0.475117 0.58796 0.31454
H 0.563433 0.196874 0.677475 0.0983
H 0.563402 0.446923 0.677422 0.0983
H 0.813444 0.196897 0.677489 0.0983
H 0.813415 0.446946 0.677432 0.0983
H 0.599579 0.206752 0.642266 0.0983
H 0.599569 0.45676 0.642227 0.0983
H 0.849593 0.206776 0.642285 0.0983
H 0.849584 0.456783 0.642241 0.0983
H 0.567333 0.174358 0.808557 0.0983
H 0.567341 0.424358 0.808483 0.0983
H 0.817326 0.174363 0.808551 0.0983
H 0.817335 0.424361 0.808477 0.0983
H 0.569194 0.11103 0.560652 0.31454
H 0.569211 0.360988 0.560733 0.31454
H 0.819192 0.111062 0.56065 0.31454
H 0.819209 0.361017 0.56073 0.31454
H 0.647706 0.0103127 0.771711 0.0983
H 0.647719 0.260297 0.771766 0.0983
H 0.897708 0.0103141 0.77172 0.0983
H 0.897723 0.260299 0.771777 0.0983
H 0.575292 0.998108 0.808 0.31454
H 0.575309 0.248112 0.808083 0.31454
H 0.825291 0.998118 0.808003 0.31454
H 0.825309 0.248123 0.808087 0.31454
H 0.601392 0.102969 0.867731 0.0983
H 0.601391 0.353027 0.867715 0.0983
H 0.8514 0.102982 0.867742 0.0983
H 0.8514 0.353047 0.867725 0.0983
H 0.572052 0.112949 0.823009 0.0983
H 0.572044 0.362939 0.822971 0.0983
H 0.822055 0.11295 0.823021 0.0983
H 0.822043 0.362939 0.822983 0.0983
H 0.630958 0.198244 0.918489 0.0983
H 0.630939 0.44831 0.918416 0.0983
H 0.880956 0.198251 0.91848 0.0983
H 0.880936 0.448321 0.918407 0.0983
H 0.571342 0.0458609 0.872406 0.0983
H 0.571405 0.295905 0.872493 0.0983
H 0.821367 0.0458698 0.872434 0.0983
H 0.821443 0.295917 0.872532 0.0983
H 0.542779 0.056572 0.82774 0.0983
H 0.542807 0.306544 0.827829 0.0983
H 0.792791 0.0565697 0.827775 0.0983
H 0.792823 0.306537 0.82788 0.0983
H 0.605527 0.196572 0.745867 0.0983
H 0.605517 0.446587 0.745791 0.0983
H 0.85551 0.19659 0.745862 0.0983
H 0.855499 0.446603 0.745786 0.0983
H 0.651464 0.201512 0.75563 0.0983
H 0.651457 0.451529 0.755542 0.0983
H 0.901451 0.201516 0.755613 0.0983
H 0.901443 0.451532 0.755523 0.0983
H 0.672801 0.155999 0.588211 0.31454
H 0.672788 0.405946 0.588227 0.31454
H 0.922826 0.156001 0.588206 0.31454
H 0.922814 0.405946 0.588218 0.31454
H 0.648441 0.140026 0.629895 0.31454
H 0.648438 0.389993 0.629934 0.31454
H 0.898455 0.140042 0.629889 0.31454
H 0.898453 0.390009 0.629925 0.31454
H 0.505139 0.187049 0.843396 0.0983
H 0.505132 0.437074 0.843326 0.0983
H 0.755158 0.187096 0.843401 0.0983
H 0.755151 0.437122 0.843333 0.0983
H 0.691377 0.211475 0.952133 0.0983
H 0.69137 0.461525 0.952056 0.0983
H 0.941388 0.211498 0.952138 0.0983
H 0.941381 0.461551 0.95206 0.0983
H 0.516447 0.120352 0.96977 0.0983
H 0.516452 0.370412 0.969736 0.0983
H 0.766449 0.120372 0.969794 0.0983
H 0.766455 0.370433 0.969762 0.0983
H 0.722132 0.178784 0.511026 0.0983
H 0.72214 0.42872 0.511094 0.0983
H 0.972141 0.178778 0.511036 0.0983
H 0.972149 0.428711 0.511104 0.0983
H 0.518911 0.174815 0.507643 0.0983
H 0.518918 0.424745 0.507705 0.0983
H 0.768918 0.174841 0.507661 0.0983
H 0.768926 0.42477 0.507721 0.0983
H 0.701036 0.106375 0.859078 0.0983
H 0.70096 0.356352 0.859074 0.0983
H 0.951035 0.106368 0.859081 0.0983
H 0.950952 0.356346 0.859081 0.0983
H 0.664321 0.0915616 0.88954 0.0983
H 0.664291 0.341519 0.889604 0.0983
H 0.914325 0.0915483 0.889547 0.0983
H 0.914291 0.341502 0.889619 0.0983
H 0.648108 0.0317596 0.874743 0.31454
H 0.648114 0.281717 0.874854 0.31454
H 0.898122 0.0317481 0.874758 0.31454
H 0.898128 0.281704 0.874876 0.31454
H 0.680281 0.0252551 0.912532 0.31454
H 0.680318 0.275233 0.91261 0.31454
H 0.930305 0.0252388 0.912531 0.31454
H 0.930344 0.275215 0.912614 0.31454
H 0.688475 0.0534467 0.823087 0.0983
H 0.688446 0.303399 0.823141 0.0983
H 0.93848 0.0534387 0.823089 0.0983
H 0.938449 0.30339 0.823147 0.0983
H 0.724602 0.043557 0.85831 0.0983
H 0.724594 0.293549 0.858351 0.0983
H 0.974613 0.0435535 0.858304 0.0983
H 0.974604 0.293547 0.85835 0.0983
H 0.692311 0.0759631 0.692016 0.0983
H 0.692319 0.325965 0.692089 0.0983
H 0.942336 0.076011 0.69205 0.0983
H 0.942345 0.326013 0.692124 0.0983
H 0.694191 0.139289 0.939918 0.31454
H 0.694208 0.389332 0.939839 0.31454
H 0.944203 0.139286 0.939911 0.31454
H 0.944221 0.389332 0.93983 0.31454
H 0.5227 0.239991 0.728794 0.0983
H 0.522714 0.490008 0.728737 0.0983
H 0.772702 0.24002 0.72882 0.0983
H 0.772716 0.490036 0.728765 0.0983
H 0.700285 0.252223 0.692564 0.31454
H 0.700302 0.502218 0.692481 0.31454
H 0.950313 0.25225 0.692521 0.31454
H 0.950331 0.502245 0.692435 0.31454
H 0.726391 0.147364 0.632811 0.0983
H 0.72639 0.397301 0.63283 0.0983
H 0.976406 0.147358 0.632834 0.0983
H 0.976406 0.397292 0.632851 0.0983
H 0.697052 0.137384 0.677543 0.0983
H 0.697041 0.387395 0.677582 0.0983
H 0.947047 0.137412 0.677559 0.0983
H 0.947035 0.387423 0.677597 0.0983
H 0.505979 0.0520778 0.582067 0.0983
H 0.505958 0.302008 0.582138 0.0983
H 0.755972 0.0521023 0.582085 0.0983
H 0.755952 0.302034 0.582158 0.0983
H 0.69634 0.204474 0.628151 0.0983
H 0.696413 0.454427 0.628056 0.0983
H 0.946396 0.204479 0.628113 0.0983
H 0.946472 0.454431 0.628014 0.0983
H 0.667777 0.19376 0.672825 0.0983
H 0.667808 0.443792 0.672724 0.0983
H 0.917796 0.1938 0.672766 0.0983
H 0.917827 0.443833 0.67266 0.0983
H 0.730495 0.0537448 0.754703 0.0983
H 0.730484 0.303731 0.754778 0.0983
H 0.980492 0.0537516 0.754724 0.0983
H 0.980481 0.303739 0.7548 0.0983
H 0.526431 0.0487929 0.744919 0.0983
H 0.526425 0.298776 0.745006 0.0983
H 0.776438 0.0488194 0.744943 0.0983
H 0.77643 0.298803 0.745033 0.0983
C 0.622599 0.0574726 0.62316 0.25189
C 0.622593 0.307437 0.62323 0.25189
C 0.872587 0.0575011 0.623169 0.25189
C 0.87258 0.307465 0.62324 0.25189
C 0.590322 0.0437166 0.567223 -0.09298
C 0.590315 0.29367 0.567298 -0.09298
C 0.840308 0.0437474 0.567233 -0.09298
C 0.840301 0.293699 0.567309 -0.09298
C 0.619289 0.061342 0.552738 0.18052
C 0.619283 0.311289 0.552807 0.18052
C 0.86928 0.0613654 0.552746 0.18052
C 0.869274 0.31131 0.552815 0.18052
C 0.606992 0.136066 0.97647 0.6158
C 0.606995 0.386135 0.976427 0.6158
C 0.856997 0.136084 0.976471 0.6158
C 0.857001 0.386158 0.976431 0.6158
C 0.615441 0.120037 0.519531 0.04907
C 0.615443 0.369979 0.519578 0.04907
C 0.865445 0.120059 0.519536 0.04907
C 0.865447 0.369997 0.519581 0.04907
C 0.618952 0.0811637 0.511147 -0.30643
C 0.618946 0.331103 0.511208 -0.30643
C 0.868947 0.0811851 0.511153 -0.30643
C 0.868942 0.331121 0.511214 -0.30643
C 0.567513 0.163683 0.618499 -0.30643
C 0.567479 0.413702 0.618472 -0.30643
C 0.817536 0.163701 0.618519 -0.30643
C 0.817502 0.41372 0.61849 -0.30643
C 0.571542 0.198757 0.642286 0.12371
C 0.571526 0.448784 0.642235 0.12371
C 0.821557 0.198778 0.642301 0.12371
C 0.821542 0.448804 0.642247 0.12371
C 0.620367 0.196535 0.813966 0.18052
C 0.620372 0.446542 0.813887 0.18052
C 0.870363 0.196537 0.813956 0.18052
C 0.870368 0.446543 0.813877 0.18052
C 0.590564 0.18029 0.828233 -0.09298
C 0.59057 0.430296 0.828159 -0.09298
C 0.840556 0.180297 0.828227 -0.09298
C 0.840563 0.430303 0.828154 -0.09298
C 0.611029 0.00704597 0.718619 0.6158
C 0.611029 0.257026 0.718691 0.6158
C 0.861032 0.00706578 0.718627 0.6158
C 0.861032 0.257048 0.7187 0.6158
C 0.621532 0.99862 0.765005 0.04907
C 0.621543 0.248606 0.765075 0.04907
C 0.871532 0.998628 0.76501 0.04907
C 0.871543 0.248616 0.765081 0.04907
C 0.588931 0.159144 0.576433 0.57738
C 0.588931 0.40912 0.57644 0.57738
C 0.838946 0.159165 0.576447 0.57738
C 0.838947 0.409139 0.576451 0.57738
C 0.574673 0.0984988 0.853626 0.12371
C 0.574676 0.348523 0.853616 0.12371
C 0.824681 0.0985053 0.853641 0.12371
C 0.824684 0.348532 0.853633 0.12371
C 0.622471 0.194259 0.88448 0.25189
C 0.62246 0.444304 0.884407 0.25189
C 0.872464 0.19427 0.884472 0.25189
C 0.872453 0.444317 0.884399 0.25189
C 0.569568 0.0606135 0.841888 -0.30643
C 0.5696 0.310624 0.841949 -0.30643
C 0.819582 0.0606179 0.841913 -0.30643
C 0.81962 0.310628 0.841983 -0.30643
C 0.625117 0.209622 0.76815 -0.30643
C 0.625111 0.459635 0.768071 -0.30643
C 0.875108 0.209631 0.768143 -0.30643
C 0.875101 0.459642 0.768063 -0.30643
C 0.596275 0.0467399 0.809115 0.57738
C 0.596302 0.296738 0.809178 0.57738
C 0.846285 0.0467456 0.809134 0.57738
C 0.846315 0.296745 0.809202 0.57738
C 0.497612 0.192868 0.877401 0.25189
C 0.497605 0.442903 0.87733 0.25189
C 0.747595 0.192857 0.877408 0.25189
C 0.747588 0.442893 0.877338 0.25189
C 0.715293 0.206597 0.933339 -0.09298
C 0.715286 0.456644 0.933264 -0.09298
C 0.965296 0.206597 0.933338 -0.09298
C 0.965289 0.456647 0.933261 -0.09298
C 0.744268 0.188987 0.947829 0.18052
C 0.744263 0.439041 0.947761 0.18052
C 0.994276 0.188999 0.947847 0.18052
C 0.994271 0.439055 0.947778 0.18052
C 0.731996 0.114259 0.524094 0.6158
C 0.731999 0.364188 0.524135 0.6158
C 0.982003 0.11425 0.524094 0.6158
C 0.982007 0.364175 0.524134 0.6158
C 0.740438 0.13029 0.98103 0.04907
C 0.74044 0.38035 0.980984 0.04907
C 0.990445 0.130283 0.981029 0.04907
C 0.990447 0.380347 0.980984 0.04907
C 0.743932 0.169164 0.989418 -0.30643
C 0.743927 0.419227 0.989357 -0.30643
C 0.993941 0.169158 0.989423 -0.30643
C 0.993936 0.419223 0.989362 -0.30643
C 0.692544 0.0866437 0.882057 -0.30643
C 0.692512 0.336625 0.882083 -0.30643
C 0.942548 0.0866349 0.882059 -0.30643
C 0.942513 0.336616 0.882091 -0.30643
C 0.696569 0.0515644 0.858279 0.12371
C 0.696555 0.301538 0.85833 0.12371
C 0.946578 0.0515567 0.858279 0.12371
C 0.946563 0.30153 0.858335 0.12371
C 0.745355 0.0538017 0.686607 0.18052
C 0.745361 0.303795 0.686687 0.18052
C 0.995385 0.0538567 0.686641 0.18052
C 0.99539 0.303851 0.686722 0.18052
C 0.715546 0.070036 0.672339 -0.09298
C 0.715552 0.32003 0.672412 -0.09298
C 0.965564 0.0700718 0.672363 -0.09298
C 0.96557 0.320066 0.672437 -0.09298
C 0.73603 0.243268 0.781931 0.6158
C 0.73603 0.493287 0.781859 0.6158
C 0.986033 0.243266 0.781923 0.6158
C 0.986033 0.493283 0.781848 0.6158
C 0.996531 0.251724 0.735542 0.04907
C 0.996542 0.501735 0.735469 0.04907
C 0.746525 0.251707 0.735544 0.04907
C 0.746536 0.501719 0.735474 0.04907
C 0.713944 0.0911792 0.924131 0.57738
C 0.713945 0.341204 0.924125 0.57738
C 0.963949 0.0911725 0.924133 0.57738
C 0.963949 0.341199 0.92413 0.57738
C 0.699672 0.151835 0.646926 0.12371
C 0.699675 0.401809 0.646936 0.12371
C 0.949684 0.151847 0.646931 0.12371
C 0.949687 0.40182 0.646938 0.12371
C 0.497494 0.0560872 0.616076 0.25189
C 0.497483 0.30604 0.616148 0.25189
C 0.747474 0.0560833 0.616094 0.25189
C 0.747464 0.306037 0.616167 0.25189
C 0.694566 0.18972 0.658668 -0.30643
C 0.694602 0.43971 0.658602 -0.30643
C 0.944592 0.18974 0.65864 -0.30643
C 0.944629 0.439729 0.65857 -0.30643
C 0.750097 0.0407055 0.732417 -0.30643
C 0.75009 0.290694 0.732496 -0.30643
C 0.000102038 0.0407236 0.732438 -0.30643
C 9.52031e-05 0.290713 0.732519 -0.30643
C 0.721271 0.20359 0.691435 0.57738
C 0.721301 0.453591 0.691369 0.57738
C 0.971283 0.20361 0.691426 0.57738
C 0.971313 0.45361 0.691357 0.57738
N 0.548272 0.110512 0.885791 -0.64634
N 0.548265 0.360551 0.885759 -0.64634
N 0.798279 0.110517 0.885805 -0.64634
N 0.798274 0.360558 0.885778 -0.64634
N 0.591953 0.178712 0.872545 -0.44443
N 0.59195 0.428743 0.872475 -0.44443
N 0.841944 0.178725 0.87254 -0.44443
N 0.841941 0.428758 0.872471 -0.44443
N 0.592412 0.0415505 0.611396 -0.44443
N 0.592404 0.291514 0.611473 -0.44443
N 0.842396 0.0415851 0.611407 -0.44443
N 0.842388 0.291548 0.611484 -0.44443
N 0.639652 0.0697574 0.58816 -0.44443
N 0.639647 0.319711 0.588225 -0.44443
N 0.889643 0.0697796 0.588168 -0.44443
N 0.889638 0.319732 0.588233 -0.44443
N 0.549777 0.224479 0.62193 -0.64634
N 0.549788 0.474511 0.621846 -0.64634
N 0.799791 0.224495 0.621937 -0.64634
N 0.799803 0.474527 0.62185 -0.64634
N 0.640427 0.205656 0.849381 -0.44443
N 0.64042 0.455687 0.849303 -0.44443
N 0.890421 0.205661 0.849371 -0.44443
N 0.890415 0.455692 0.849292 -0.44443
N 0.588459 0.12884 0.553261 -0.43464
N 0.588469 0.378796 0.553313 -0.43464
N 0.838464 0.128867 0.553266 -0.43464
N 0.838474 0.37882 0.553316 -0.43464
N 0.595771 0.0132328 0.796803 -0.43464
N 0.595791 0.263229 0.796879 -0.43464
N 0.845774 0.0132407 0.796811 -0.43464
N 0.845795 0.263239 0.796889 -0.43464
N 0.67327 0.139824 0.614771 -0.64634
N 0.673265 0.389784 0.6148 -0.64634
N 0.923288 0.139832 0.614772 -0.64634
N 0.923283 0.389791 0.614799 -0.64634
N 0.716945 0.0716162 0.628027 -0.44443
N 0.716941 0.321584 0.628096 -0.44443
N 0.966928 0.071593 0.628043 -0.44443
N 0.966925 0.32156 0.628112 -0.44443
N 0.717392 0.208762 0.889167 -0.44443
N 0.717384 0.458797 0.88909 -0.44443
N 0.96738 0.208728 0.889159 -0.44443
N 0.967372 0.458766 0.889081 -0.44443
N 0.514656 0.180587 0.912408 -0.44443
N 0.514652 0.430633 0.912342 -0.44443
N 0.764648 0.180583 0.912411 -0.44443
N 0.764643 0.43063 0.912346 -0.44443
N 0.674784 0.025854 0.878634 -0.64634
N 0.674796 0.275823 0.878718 -0.64634
N 0.9248 0.0258421 0.878636 -0.64634
N 0.924812 0.27581 0.878725 -0.64634
N 0.515444 0.0446967 0.65118 -0.44443
N 0.515438 0.294664 0.651257 -0.44443
N 0.765428 0.0446912 0.651194 -0.44443
N 0.765422 0.29466 0.651272 -0.44443
N 0.71346 0.121482 0.947306 -0.43464
N 0.713471 0.371527 0.947255 -0.43464
N 0.963469 0.121477 0.947303 -0.43464
N 0.963479 0.371524 0.947253 -0.43464
N 0.720765 0.237097 0.703752 -0.43464
N 0.720786 0.4871 0.703676 -0.43464
N 0.97078 0.237119 0.703734 -0.43464
N 0.970801 0.48712 0.703655 -0.43464
O 0.577836 0.151238 0.971426 -0.59613
O 0.577833 0.401295 0.971377 -0.59613
O 0.827842 0.151257 0.971427 -0.59613
O 0.827839 0.401318 0.97138 -0.59613
O 0.627735 0.130576 0.942202 -0.58866
O 0.62775 0.380663 0.942167 -0.58866
O 0.877741 0.130591 0.942204 -0.58866
O 0.877757 0.380683 0.942171 -0.58866
O 0.57939 0.0155391 0.710532 -0.59613
O 0.579385 0.265509 0.710611 -0.59613
O 0.829393 0.0155579 0.71054 -0.59613
O 0.829388 0.265529 0.710621 -0.59613
O 0.609088 0.183967 0.563182 -0.58866
O 0.609094 0.433931 0.563164 -0.58866
O 0.859114 0.183984 0.563206 -0.58866
O 0.859119 0.433946 0.563183 -0.58866
O 0.633402 0.00202709 0.685901 -0.58866
O 0.633397 0.252006 0.685968 -0.58866
O 0.883409 0.00205651 0.68591 -0.58866
O 0.883403 0.252037 0.685978 -0.58866
O 0.619546 0.0671178 0.79166 -0.58866
O 0.619581 0.317107 0.791719 -0.58866
O 0.869562 0.0671221 0.791688 -0.58866
O 0.8696 0.317112 0.791752 -0.58866
O 0.702844 0.0990831 0.529145 -0.59613
O 0.702841 0.349024 0.529192 -0.59613
O 0.95285 0.099077 0.529147 -0.59613
O 0.952847 0.349014 0.529194 -0.59613
O 0.502735 0.119725 0.558327 -0.58866
O 0.502749 0.369636 0.558361 -0.58866
O 0.752735 0.119756 0.558357 -0.58866
O 0.752751 0.369667 0.55839 -0.58866
O 0.704391 0.234779 0.79003 -0.59613
O 0.704387 0.484808 0.789951 -0.59613
O 0.954395 0.234774 0.790018 -0.59613
O 0.95439 0.484802 0.789935 -0.59613
O 0.984108 0.0663504 0.937384 -0.58866
O 0.984112 0.31639 0.937408 -0.58866
O 0.734103 0.0663572 0.937381 -0.58866
O 0.73411 0.316395 0.937401 -0.58866
O 0.508406 0.24826 0.814615 -0.58866
O 0.5084 0.49828 0.814547 -0.58866
O 0.758405 0.248286 0.81464 -0.58866
O 0.758399 0.498307 0.814574 -0.58866
O 0.994544 0.183227 0.708891 -0.58866
O 0.994581 0.433237 0.708826 -0.58866
O 0.744543 0.183209 0.708883 -0.58866
O 0.744579 0.43322 0.708821 -0.58866
Zn 0.559324 0.519036 0.148845 0.82244
Zn 0.559332 0.769069 0.148764 0.82244
Zn 0.809322 0.519052 0.148855 0.82244
Zn 0.80933 0.769084 0.148772 0.82244
Zn 0.6834 0.594719 0.0907772 0.82244
Zn 0.683404 0.844764 0.0907238 0.82244
Zn 0.933403 0.594717 0.0907828 0.82244
Zn 0.933407 0.844765 0.0907301 0.82244
Zn 0.684319 0.73129 0.351717 0.82244
Zn 0.684327 0.981258 0.351799 0.82244
Zn 0.934322 0.731281 0.351707 0.82244
Zn 0.93433 0.981249 0.351791 0.82244
Zn 0.558401 0.65561 0.409791 0.82244
Zn 0.558405 0.905566 0.409845 0.82244
Zn 0.808401 0.655622 0.409795 0.82244
Zn 0.808405 0.905576 0.409848 0.82244
H 0.547549 0.594337 0.41218 0.31454
H 0.547563 0.844284 0.412197 0.31454
H 0.797565 0.594348 0.412205 0.31454
H 0.797576 0.844295 0.412218 0.31454
H 0.523428 0.61036 0.370322 0.31454
H 0.523431 0.860327 0.370363 0.31454
H 0.773436 0.610359 0.370345 0.31454
H 0.773438 0.860326 0.370381 0.31454
H 0.630144 0.563247 0.157331 0.0983
H 0.630151 0.813274 0.157262 0.0983
H 0.880138 0.563268 0.157337 0.0983
H 0.880145 0.813294 0.157268 0.0983
H 0.566497 0.538767 0.0485303 0.0983
H 0.566505 0.788817 0.0484534 0.0983
H 0.816485 0.538792 0.0485376 0.0983
H 0.816492 0.788844 0.0484597 0.0983
H 0.64143 0.629839 0.030704 0.0983
H 0.641425 0.879899 0.0306693 0.0983
H 0.891436 0.629852 0.0307044 0.0983
H 0.89143 0.879914 0.0306725 0.0983
H 0.596961 0.571723 0.489476 0.0983
H 0.596952 0.821661 0.489543 0.0983
H 0.846954 0.571748 0.489482 0.0983
H 0.846946 0.821682 0.48955 0.0983
H 0.643774 0.575524 0.492687 0.0983
H 0.643766 0.825455 0.492748 0.0983
H 0.893769 0.57554 0.492694 0.0983
H 0.893761 0.825467 0.492754 0.0983
H 0.57571 0.643941 0.141437 0.0983
H 0.575792 0.893918 0.141433 0.0983
H 0.825747 0.643962 0.141454 0.0983
H 0.825827 0.89394 0.141453 0.0983
H 0.539138 0.658884 0.110826 0.0983
H 0.539171 0.908839 0.110893 0.0983
H 0.789161 0.658891 0.110855 0.0983
H 0.789194 0.908846 0.110924 0.0983
H 0.523079 0.718689 0.125639 0.31454
H 0.523074 0.968645 0.125751 0.31454
H 0.773095 0.718697 0.125634 0.31454
H 0.773089 0.968653 0.125749 0.31454
H 0.555334 0.72514 0.0879347 0.31454
H 0.555298 0.975117 0.088012 0.31454
H 0.805357 0.725155 0.0879393 0.31454
H 0.805319 0.975132 0.0880202 0.31454
H 0.56333 0.696915 0.177386 0.0983
H 0.563363 0.946867 0.17744 0.0983
H 0.813345 0.696937 0.177396 0.0983
H 0.813376 0.946888 0.177453 0.0983
H 0.599522 0.706703 0.142209 0.0983
H 0.599534 0.956695 0.142247 0.0983
H 0.849539 0.706725 0.14222 0.0983
H 0.849548 0.956718 0.142264 0.0983
H 0.567437 0.67422 0.308392 0.0983
H 0.567428 0.924222 0.308466 0.0983
H 0.81743 0.674226 0.308388 0.0983
H 0.817421 0.924228 0.308462 0.0983
H 0.569248 0.610879 0.0608763 0.31454
H 0.569231 0.860921 0.0607959 0.31454
H 0.819245 0.610907 0.0608717 0.31454
H 0.819228 0.860951 0.0607918 0.31454
H 0.647739 0.510242 0.271734 0.0983
H 0.647725 0.760258 0.271678 0.0983
H 0.897742 0.510246 0.271744 0.0983
H 0.897727 0.76026 0.271687 0.0983
H 0.575337 0.498019 0.308068 0.31454
H 0.57532 0.748015 0.307984 0.31454
H 0.825336 0.498031 0.308071 0.31454
H 0.825319 0.748026 0.307985 0.31454
H 0.601376 0.602879 0.367939 0.0983
H 0.601377 0.852818 0.367958 0.0983
H 0.851385 0.602895 0.367953 0.0983
H 0.851385 0.85283 0.367971 0.0983
H 0.572243 0.612837 0.322992 0.0983
H 0.572254 0.862848 0.323032 0.0983
H 0.822246 0.612841 0.323007 0.0983
H 0.822259 0.862852 0.323046 0.0983
H 0.630889 0.698365 0.418382 0.0983
H 0.630909 0.948298 0.418455 0.0983
H 0.880887 0.698376 0.418374 0.0983
H 0.880907 0.948306 0.418447 0.0983
H 0.571375 0.545798 0.372494 0.0983
H 0.571307 0.795752 0.372403 0.0983
H 0.821403 0.545809 0.372525 0.0983
H 0.821327 0.795761 0.372427 0.0983
H 0.542833 0.556478 0.32779 0.0983
H 0.542804 0.806508 0.327695 0.0983
H 0.792847 0.556477 0.32783 0.0983
H 0.792815 0.80651 0.327724 0.0983
H 0.605577 0.696516 0.245736 0.0983
H 0.605587 0.946502 0.245811 0.0983
H 0.85556 0.696532 0.245732 0.0983
H 0.85557 0.946519 0.245808 0.0983
H 0.651514 0.701486 0.25549 0.0983
H 0.651521 0.951469 0.255579 0.0983
H 0.9015 0.70149 0.255474 0.0983
H 0.901509 0.951474 0.255565 0.0983
H 0.672551 0.655993 0.0883751 0.31454
H 0.672563 0.906046 0.0883595 0.31454
H 0.922574 0.655993 0.0883672 0.31454
H 0.922585 0.906047 0.0883547 0.31454
H 0.648427 0.639979 0.130243 0.31454
H 0.648429 0.890011 0.130205 0.31454
H 0.898441 0.639993 0.130236 0.31454
H 0.898443 0.890026 0.1302 0.31454
H 0.505133 0.687034 0.34323 0.0983
H 0.50514 0.937008 0.3433 0.0983
H 0.755152 0.687083 0.343237 0.0983
H 0.755158 0.937056 0.343306 0.0983
H 0.691463 0.711539 0.452031 0.0983
H 0.691471 0.961489 0.452108 0.0983
H 0.941474 0.711567 0.452036 0.0983
H 0.941481 0.961514 0.452115 0.0983
H 0.51643 0.620476 0.469824 0.0983
H 0.516424 0.870415 0.469858 0.0983
H 0.766433 0.620497 0.469852 0.0983
H 0.766427 0.870436 0.469885 0.0983
H 0.721934 0.678598 0.0110919 0.0983
H 0.721925 0.928662 0.0110246 0.0983
H 0.971944 0.678588 0.0111007 0.0983
H 0.971935 0.928655 0.0110327 0.0983
H 0.518741 0.674787 0.00786011 0.0983
H 0.518735 0.924857 0.00779869 0.0983
H 0.768749 0.674811 0.00787579 0.0983
H 0.768742 0.924881 0.00781568 0.0983
H 0.700766 0.606377 0.359119 0.0983
H 0.700844 0.856399 0.359122 0.0983
H 0.950761 0.606372 0.359126 0.0983
H 0.950845 0.856394 0.359125 0.0983
H 0.66417 0.591457 0.389714 0.0983
H 0.664201 0.8415 0.389648 0.0983
H 0.914171 0.591443 0.389727 0.0983
H 0.914205 0.841489 0.389654 0.0983
H 0.648093 0.531659 0.374919 0.31454
H 0.648087 0.781702 0.374807 0.31454
H 0.898107 0.531648 0.374939 0.31454
H 0.898101 0.781692 0.374821 0.31454
H 0.680332 0.525191 0.41263 0.31454
H 0.680295 0.775213 0.412552 0.31454
H 0.930356 0.525175 0.412634 0.31454
H 0.930318 0.775199 0.412552 0.31454
H 0.688376 0.553405 0.323177 0.0983
H 0.688407 0.803453 0.323123 0.0983
H 0.93838 0.553398 0.323183 0.0983
H 0.938412 0.803446 0.323125 0.0983
H 0.724549 0.543605 0.358371 0.0983
H 0.724558 0.793613 0.35833 0.0983
H 0.974559 0.543604 0.35837 0.0983
H 0.974569 0.79361 0.358325 0.0983
H 0.692414 0.576099 0.192177 0.0983
H 0.692405 0.826097 0.192104 0.0983
H 0.942438 0.576144 0.19221 0.0983
H 0.94243 0.826142 0.192136 0.0983
H 0.694244 0.63944 0.439696 0.31454
H 0.694228 0.889397 0.439776 0.31454
H 0.944257 0.639441 0.439689 0.31454
H 0.94424 0.889396 0.439769 0.31454
H 0.522732 0.740061 0.228769 0.0983
H 0.522718 0.990045 0.228826 0.0983
H 0.772735 0.740088 0.228796 0.0983
H 0.772721 0.990073 0.228852 0.0983
H 0.700331 0.752309 0.192495 0.31454
H 0.700313 0.00231369 0.192579 0.31454
H 0.950358 0.752334 0.192451 0.31454
H 0.95034 0.00233933 0.192538 0.31454
H 0.726375 0.647449 0.132603 0.0983
H 0.726375 0.897513 0.132583 0.0983
H 0.976389 0.647444 0.132618 0.0983
H 0.97639 0.89751 0.1326 0.0983
H 0.697242 0.637493 0.177558 0.0983
H 0.697255 0.887482 0.177519 0.0983
H 0.94724 0.637518 0.17757 0.0983
H 0.947253 0.887507 0.177532 0.0983
H 0.505908 0.551951 0.0821723 0.0983
H 0.505929 0.802021 0.0821002 0.0983
H 0.755903 0.551977 0.0821903 0.0983
H 0.755923 0.802046 0.0821173 0.0983
H 0.696377 0.704534 0.12806 0.0983
H 0.696303 0.954581 0.128155 0.0983
H 0.946425 0.704538 0.128024 0.0983
H 0.946349 0.954586 0.128123 0.0983
H 0.667832 0.693853 0.17277 0.0983
H 0.667802 0.94382 0.172871 0.0983
H 0.917849 0.693886 0.172716 0.0983
H 0.917817 0.943854 0.172822 0.0983
H 0.730545 0.5538 0.254831 0.0983
H 0.730556 0.803814 0.254755 0.0983
H 0.980542 0.553807 0.254851 0.0983
H 0.980553 0.80382 0.254775 0.0983
H 0.526481 0.548817 0.245057 0.0983
H 0.526488 0.798834 0.244969 0.0983
H 0.776487 0.548844 0.245081 0.0983
H 0.776496 0.79886 0.244991 0.0983
C 0.622618 0.557466 0.123317 0.25189
C 0.622624 0.807502 0.123247 0.25189
C 0.872606 0.557493 0.123325 0.25189
C 0.872612 0.807529 0.123254 0.25189
C 0.590394 0.543659 0.0673499 -0.09298
C 0.590401 0.793705 0.0672744 -0.09298
C 0.840381 0.543686 0.0673587 -0.09298
C 0.840388 0.793735 0.0672823 -0.09298
C 0.61937 0.561282 0.0528859 0.18052
C 0.619376 0.811335 0.0528175 0.18052
C 0.869361 0.561302 0.052892 0.18052
C 0.869367 0.811357 0.0528234 0.18052
C 0.607066 0.636251 0.476465 0.6158
C 0.607063 0.886181 0.476507 0.6158
C 0.857072 0.636274 0.476471 0.6158
C 0.857068 0.886201 0.47651 0.6158
C 0.615378 0.619948 0.0195956 0.04907
C 0.615376 0.870006 0.0195481 0.04907
C 0.865381 0.619965 0.019597 0.04907
C 0.865379 0.870027 0.0195515 0.04907
C 0.619068 0.581076 0.011276 -0.30643
C 0.619073 0.831137 0.011214 -0.30643
C 0.869063 0.581093 0.0112797 -0.30643
C 0.869068 0.831157 0.0112183 -0.30643
C 0.56736 0.6637 0.118422 -0.30643
C 0.567395 0.913681 0.118449 -0.30643
C 0.817384 0.663716 0.118439 -0.30643
C 0.817418 0.913697 0.118469 -0.30643
C 0.571465 0.698772 0.142203 0.12371
C 0.571482 0.948745 0.142253 0.12371
C 0.821482 0.69879 0.142213 0.12371
C 0.821498 0.948764 0.142268 0.12371
C 0.62044 0.696455 0.313831 0.18052
C 0.620435 0.946448 0.31391 0.18052
C 0.870435 0.696458 0.313823 0.18052
C 0.87043 0.946452 0.313902 0.18052
C 0.590655 0.680168 0.328083 -0.09298
C 0.590649 0.930162 0.328156 -0.09298
C 0.840648 0.680177 0.328079 -0.09298
C 0.840642 0.930171 0.328152 -0.09298
C 0.611038 0.506973 0.218679 0.6158
C 0.611038 0.756993 0.218606 0.6158
C 0.861041 0.506994 0.218687 0.6158
C 0.861041 0.757012 0.218613 0.6158
C 0.621567 0.49854 0.265052 0.04907
C 0.621557 0.748553 0.264982 0.04907
C 0.871568 0.498551 0.265058 0.04907
C 0.871557 0.748562 0.264986 0.04907
C 0.588846 0.659084 0.0764229 0.57738
C 0.588846 0.909108 0.0764154 0.57738
C 0.838861 0.659102 0.0764326 0.57738
C 0.838861 0.909128 0.0764283 0.57738
C 0.574713 0.598419 0.353654 0.12371
C 0.574711 0.848394 0.353665 0.12371
C 0.824723 0.598428 0.353673 0.12371
C 0.82472 0.848401 0.353681 0.12371
C 0.622475 0.694268 0.384361 0.25189
C 0.622486 0.944222 0.384434 0.25189
C 0.872468 0.694281 0.384354 0.25189
C 0.872479 0.944234 0.384428 0.25189
C 0.569614 0.560529 0.341956 -0.30643
C 0.56958 0.810518 0.341893 -0.30643
C 0.81963 0.560535 0.341984 -0.30643
C 0.819593 0.810525 0.341915 -0.30643
C 0.625162 0.709569 0.268024 -0.30643
C 0.625169 0.959557 0.268103 -0.30643
C 0.875152 0.709577 0.268017 -0.30643
C 0.875159 0.959566 0.268098 -0.30643
C 0.596337 0.546646 0.30921 0.57738
C 0.596308 0.796647 0.309145 0.57738
C 0.846348 0.546654 0.309231 0.57738
C 0.846318 0.796654 0.309163 0.57738
C 0.49763 0.692872 0.377241 0.25189
C 0.497637 0.942837 0.377313 0.25189
C 0.747613 0.692861 0.37725 0.25189
C 0.74762 0.942826 0.37732 0.25189
C 0.715366 0.706654 0.433212 -0.09298
C 0.715373 0.956607 0.433287 -0.09298
C 0.965369 0.706659 0.43321 -0.09298
C 0.965376 0.956609 0.433288 -0.09298
C 0.74435 0.689047 0.447681 0.18052
C 0.744356 0.938993 0.447749 0.18052
C 0.994357 0.689063 0.447699 0.18052
C 0.994363 0.939007 0.447769 0.18052
C 0.732069 0.614073 0.0240955 0.6158
C 0.732066 0.864144 0.0240547 0.6158
C 0.982077 0.61406 0.0240939 0.6158
C 0.982073 0.864135 0.0240542 0.6158
C 0.740375 0.630381 0.480967 0.04907
C 0.740373 0.880321 0.481014 0.04907
C 0.990382 0.630378 0.480968 0.04907
C 0.99038 0.880315 0.481014 0.04907
C 0.744049 0.669253 0.489289 -0.30643
C 0.744054 0.919191 0.489351 -0.30643
C 0.994057 0.66925 0.489295 -0.30643
C 0.994062 0.919185 0.489357 -0.30643
C 0.692394 0.586625 0.382135 -0.30643
C 0.692427 0.836644 0.382107 -0.30643
C 0.942395 0.586618 0.382142 -0.30643
C 0.942431 0.836637 0.38211 -0.30643
C 0.696495 0.551549 0.358364 0.12371
C 0.69651 0.801576 0.358312 0.12371
C 0.946503 0.551543 0.358368 0.12371
C 0.94652 0.80157 0.358312 0.12371
C 0.745428 0.553879 0.18674 0.18052
C 0.745423 0.803886 0.18666 0.18052
C 0.995456 0.553932 0.186773 0.18052
C 0.995451 0.803938 0.186693 0.18052
C 0.715638 0.570155 0.172486 -0.09298
C 0.715631 0.820161 0.172413 -0.09298
C 0.965654 0.570188 0.172509 -0.09298
C 0.965648 0.820194 0.172435 -0.09298
C 0.736039 0.743339 0.28187 0.6158
C 0.736039 0.99332 0.281943 0.6158
C 0.986042 0.743334 0.281859 0.6158
C 0.986042 0.993317 0.281935 0.6158
C 0.996566 0.751798 0.23549 0.04907
C 0.996555 0.00178694 0.235563 0.04907
C 0.746561 0.751784 0.235496 0.04907
C 0.74655 0.00177141 0.235566 0.04907
C 0.71386 0.591239 0.424144 0.57738
C 0.713859 0.841214 0.42415 0.57738
C 0.963864 0.591235 0.424148 0.57738
C 0.963864 0.841209 0.424152 0.57738
C 0.699713 0.651911 0.146896 0.12371
C 0.69971 0.901937 0.146886 0.12371
C 0.949725 0.651921 0.146897 0.12371
C 0.949722 0.901948 0.14689 0.12371
C 0.497498 0.556075 0.116194 0.25189
C 0.497509 0.806123 0.116121 0.25189
C 0.747479 0.556071 0.116211 0.25189
C 0.74749 0.806118 0.116138 0.25189
C 0.694614 0.689802 0.158597 -0.30643
C 0.694578 0.939812 0.158664 -0.30643
C 0.944636 0.689819 0.15857 -0.30643
C 0.944599 0.93983 0.15864 -0.30643
C 0.750142 0.540757 0.232541 -0.30643
C 0.750149 0.790769 0.232462 -0.30643
C 0.000146212 0.540775 0.232562 -0.30643
C 0.000152988 0.790786 0.232481 -0.30643
C 0.721334 0.703681 0.191339 0.57738
C 0.721305 0.95368 0.191405 0.57738
C 0.971344 0.703698 0.191328 0.57738
C 0.971314 0.953698 0.191397 0.57738
N 0.54819 0.6105 0.385614 -0.64634
N 0.548196 0.86046 0.385644 -0.64634
N 0.7982 0.610507 0.385633 -0.64634
N 0.798205 0.860466 0.38566 -0.64634
N 0.592004 0.678642 0.372404 -0.44443
N 0.592007 0.928611 0.372473 -0.44443
N 0.841996 0.678657 0.372401 -0.44443
N 0.841999 0.928625 0.37247 -0.44443
N 0.592444 0.541527 0.11153 -0.44443
N 0.592451 0.791563 0.111453 -0.44443
N 0.842428 0.541559 0.11154 -0.44443
N 0.842436 0.791596 0.111462 -0.44443
N 0.639699 0.569729 0.0883231 -0.44443
N 0.639703 0.819775 0.088258 -0.44443
N 0.88969 0.569748 0.088329 -0.44443
N 0.889695 0.819796 0.0882638 -0.44443
N 0.549777 0.724539 0.121819 -0.64634
N 0.549766 0.974507 0.121902 -0.64634
N 0.799793 0.724553 0.121821 -0.64634
N 0.799781 0.974521 0.121908 -0.64634
N 0.640443 0.705656 0.349266 -0.44443
N 0.640449 0.955625 0.349344 -0.44443
N 0.890437 0.705663 0.349257 -0.44443
N 0.890444 0.955632 0.349336 -0.44443
N 0.588419 0.628739 0.053348 -0.43464
N 0.588409 0.878782 0.0532955 -0.43464
N 0.838424 0.628761 0.0533492 -0.43464
N 0.838413 0.878807 0.0532985 -0.43464
N 0.595821 0.513142 0.296879 -0.43464
N 0.595801 0.763146 0.296803 -0.43464
N 0.845824 0.513153 0.296888 -0.43464
N 0.845803 0.763155 0.29681 -0.43464
N 0.67319 0.639834 0.114946 -0.64634
N 0.673195 0.889873 0.114917 -0.64634
N 0.923206 0.639839 0.114944 -0.64634
N 0.923212 0.88988 0.114917 -0.64634
N 0.716996 0.571683 0.128166 -0.44443
N 0.716999 0.821715 0.128096 -0.44443
N 0.966979 0.571658 0.12818 -0.44443
N 0.966983 0.821691 0.12811 -0.44443
N 0.717424 0.708783 0.389032 -0.44443
N 0.717432 0.958747 0.389109 -0.44443
N 0.967412 0.708753 0.389025 -0.44443
N 0.96742 0.958716 0.389104 -0.44443
N 0.514703 0.680614 0.412242 -0.44443
N 0.514708 0.930568 0.412308 -0.44443
N 0.764695 0.68061 0.412247 -0.44443
N 0.764699 0.930564 0.412312 -0.44443
N 0.674786 0.525794 0.378746 -0.64634
N 0.674774 0.775825 0.378662 -0.64634
N 0.924801 0.525783 0.378752 -0.64634
N 0.924789 0.775815 0.378664 -0.64634
N 0.51546 0.544694 0.151293 -0.44443
N 0.515467 0.794726 0.151216 -0.44443
N 0.765445 0.544688 0.151307 -0.44443
N 0.765451 0.79472 0.151228 -0.44443
N 0.713421 0.621583 0.447221 -0.43464
N 0.71341 0.871539 0.447272 -0.43464
N 0.963429 0.621582 0.44722 -0.43464
N 0.963419 0.871535 0.447271 -0.43464
N 0.720815 0.737184 0.203675 -0.43464
N 0.720795 0.987181 0.203752 -0.43464
N 0.970829 0.737203 0.203656 -0.43464
N 0.970808 0.987202 0.203735 -0.43464
O 0.577748 0.651109 0.471308 -0.59613
O 0.577751 0.901051 0.471356 -0.59613
O 0.827754 0.651133 0.471311 -0.59613
O 0.827757 0.901071 0.471358 -0.59613
O 0.627964 0.63103 0.442293 -0.58866
O 0.62795 0.880943 0.442328 -0.58866
O 0.87797 0.631051 0.442299 -0.58866
O 0.877955 0.88096 0.442331 -0.58866
O 0.579396 0.515471 0.210621 -0.59613
O 0.5794 0.765502 0.210542 -0.59613
O 0.829399 0.515491 0.210629 -0.59613
O 0.829403 0.76552 0.210548 -0.59613
O 0.608969 0.683905 0.0630935 -0.58866
O 0.608963 0.933942 0.0631105 -0.58866
O 0.858993 0.68392 0.0631101 -0.58866
O 0.858988 0.933958 0.0631321 -0.58866
O 0.633397 0.501968 0.185942 -0.58866
O 0.633402 0.75199 0.185875 -0.58866
O 0.883403 0.501998 0.185952 -0.58866
O 0.883409 0.752017 0.185884 -0.58866
O 0.619622 0.567019 0.291773 -0.58866
O 0.619587 0.81703 0.291713 -0.58866
O 0.869639 0.567026 0.291802 -0.58866
O 0.869602 0.817036 0.291739 -0.58866
O 0.702756 0.599209 0.0292603 -0.59613
O 0.702759 0.849269 0.0292126 -0.59613
O 0.952762 0.599201 0.0292612 -0.59613
O 0.952764 0.849263 0.0292145 -0.59613
O 0.502964 0.619268 0.0582358 -0.58866
O 0.50295 0.869357 0.0582014 -0.58866
O 0.752964 0.619299 0.0582633 -0.58866
O 0.752949 0.869388 0.05823 -0.58866
O 0.704398 0.734844 0.28994 -0.59613
O 0.704402 0.984815 0.29002 -0.59613
O 0.954401 0.734839 0.289926 -0.59613
O 0.954405 0.984811 0.290008 -0.59613
O 0.983987 0.566415 0.437481 -0.58866
O 0.983982 0.816375 0.437458 -0.58866
O 0.733985 0.566418 0.437473 -0.58866
O 0.733979 0.816381 0.437454 -0.58866
O 0.5084 0.748315 0.314572 -0.58866
O 0.508405 0.998296 0.31464 -0.58866
O 0.758399 0.748344 0.314598 -0.58866
O 0.758405 0.998323 0.314665 -0.58866
O 0.99462 0.68332 0.208775 -0.58866
O 0.994584 0.933311 0.208839 -0.58866
O 0.744619 0.683304 0.208769 -0.58866
O 0.744583 0.933294 0.208831 -0.58866
Zn 0.559319 0.51906 0.648745 0.82244
Zn 0.559311 0.769028 0.648826 0.82244
Zn 0.809317 0.519077 0.648754 0.82244
Zn 0.809308 0.769045 0.648837 0.82244
Zn 0.683399 0.594679 0.590624 0.82244
Zn 0.683395 0.844633 0.590677 0.82244
Zn 0.933402 0.59468 0.590631 0.82244
Zn 0.933398 0.844632 0.590684 0.82244
Zn 0.684314 0.731269 0.851819 0.82244
Zn 0.684306 0.9813 0.851738 0.82244
Zn 0.934317 0.731257 0.85181 0.82244
Zn 0.934309 0.981289 0.851726 0.82244
Zn 0.5584 0.655653 0.909947 0.82244
Zn 0.558395 0.905698 0.909892 0.82244
Zn 0.808399 0.655663 0.909949 0.82244
Zn 0.808395 0.905709 0.909896 0.82244
H 0.547801 0.594333 0.912346 0.31454
H 0.547785 0.844385 0.912328 0.31454
H 0.797812 0.594343 0.912366 0.31454
H 0.797801 0.844397 0.912352 0.31454
H 0.523443 0.610315 0.870673 0.31454
H 0.52344 0.860349 0.87063 0.31454
H 0.773449 0.610314 0.87069 0.31454
H 0.773447 0.860347 0.870653 0.31454
H 0.63015 0.563236 0.657168 0.0983
H 0.630143 0.813209 0.657236 0.0983
H 0.880144 0.563258 0.657176 0.0983
H 0.880137 0.813231 0.657245 0.0983
H 0.566412 0.538831 0.548429 0.0983
H 0.566405 0.788782 0.548505 0.0983
H 0.816399 0.53886 0.548437 0.0983
H 0.816392 0.788808 0.548514 0.0983
H 0.641448 0.629964 0.53076 0.0983
H 0.641453 0.879904 0.530794 0.0983
H 0.891453 0.629981 0.530764 0.0983
H 0.891459 0.879918 0.530796 0.0983
H 0.597158 0.571538 0.989541 0.0983
H 0.597166 0.8216 0.989473 0.0983
H 0.847151 0.571558 0.989546 0.0983
H 0.84716 0.821624 0.989478 0.0983
H 0.643942 0.575495 0.992902 0.0983
H 0.64395 0.825563 0.992841 0.0983
H 0.893936 0.575506 0.992906 0.0983
H 0.893944 0.825579 0.992846 0.0983
H 0.575984 0.643944 0.641477 0.0983
H 0.575904 0.893967 0.641481 0.0983
H 0.826018 0.643967 0.641497 0.0983
H 0.825938 0.893989 0.641498 0.0983
H 0.539292 0.658779 0.611 0.0983
H 0.539259 0.908824 0.610934 0.0983
H 0.789314 0.658788 0.611031 0.0983
H 0.789282 0.908833 0.610963 0.0983
H 0.523095 0.718588 0.625816 0.31454
H 0.5231 0.968632 0.625705 0.31454
H 0.77311 0.718598 0.625814 0.31454
H 0.773117 0.968641 0.625698 0.31454
H 0.555284 0.725077 0.588032 0.31454
H 0.55532 0.9751 0.587955 0.31454
H 0.805306 0.725094 0.588041 0.31454
H 0.805344 0.975117 0.58796 0.31454
H 0.563433 0.696874 0.677475 0.0983
H 0.563402 0.946923 0.677422 0.0983
H 0.813444 0.696897 0.677489 0.0983
H 0.813415 0.946946 0.677432 0.0983
H 0.599579 0.706752 0.642266 0.0983
H 0.599569 0.95676 0.642227 0.0983
H 0.849593 0.706776 0.642285 0.0983
H 0.849584 0.956783 0.642241 0.0983
H 0.567333 0.674358 0.808557 0.0983
H 0.567341 0.924358 0.808483 0.0983
H 0.817326 0.674363 0.808551 0.0983
H 0.817335 0.924361 0.808477 0.0983
H 0.569194 0.61103 0.560652 0.31454
H 0.569211 0.860988 0.560733 0.31454
H 0.819192 0.611062 0.56065 0.31454
H 0.819209 0.861017 0.56073 0.31454
H 0.647706 0.510313 0.771711 0.0983
H 0.647719 0.760297 0.771766 0.0983
H 0.897708 0.510314 0.77172 0.0983
H 0.897723 0.760299 0.771777 0.0983
H 0.575292 0.498108 0.808 0.31454
H 0.575309 0.748112 0.808083 0.31454
H 0.825291 0.498118 0.808003 0.31454
H 0.825309 0.748123 0.808087 0.31454
H 0.601392 0.602969 0.867731 0.0983
H 0.601391 0.853027 0.867715 0.0983
H 0.8514 0.602982 0.867742 0.0983
H 0.8514 0.853047 0.867725 0.0983
H 0.572052 0.612949 0.823009 0.0983
H 0.572044 0.862939 0.822971 0.0983
H 0.822055 0.61295 0.823021 0.0983
H 0.822043 0.862939 0.822983 0.0983
H 0.630958 0.698244 0.918489 0.0983
H 0.630939 0.94831 0.918416 0.0983
H 0.880956 0.698251 0.91848 0.0983
H 0.880936 0.948321 0.918407 0.0983
H 0.571342 0.545861 0.872406 0.0983
H 0.571405 0.795905 0.872493 0.0983
H 0.821367 0.54587 0.872434 0.0983
H 0.821443 0.795917 0.872532 0.0983
H 0.542779 0.556572 0.82774 0.0983
H 0.542807 0.806544 0.827829 0.0983
H 0.792791 0.55657 0.827775 0.0983
H 0.792823 0.806537 0.82788 0.0983
H 0.605527 0.696572 0.745867 0.0983
H 0.605517 0.946587 0.745791 0.0983
H 0.85551 0.69659 0.745862 0.0983
H 0.855499 0.946603 0.745786 0.0983
H 0.651464 0.701512 0.75563 0.0983
H 0.651457 0.951529 0.755542 0.0983
H 0.901451 0.701516 0.755613 0.0983
H 0.901443 0.951532 0.755523 0.0983
H 0.672801 0.655999 0.588211 0.31454
H 0.672788 0.905946 0.588227 0.31454
H 0.922826 0.656001 0.588206 0.31454
H 0.922814 0.905946 0.588218 0.31454
H 0.648441 0.640026 0.629895 0.31454
H 0.648438 0.889993 0.629934 0.31454
H 0.898455 0.640042 0.629889 0.31454
H 0.898453 0.890009 0.629925 0.31454
H 0.505139 0.687049 0.843396 0.0983
H 0.505132 0.937074 0.843326 0.0983
H 0.755158 0.687096 0.843401 0.0983
H 0.755151 0.937122 0.843333 0.0983
H 0.691377 0.711475 0.952133 0.0983
H 0.69137 0.961525 0.952056 0.0983
H 0.941388 0.711498 0.952138 0.0983
H 0.941381 0.961551 0.95206 0.0983
H 0.516447 0.620352 0.96977 0.0983
H 0.516452 0.870412 0.969736 0.0983
H 0.766449 0.620372 0.969794 0.0983
H 0.766455 0.870433 0.969762 0.0983
H 0.722132 0.678784 0.511026 0.0983
H 0.72214 0.92872 0.511094 0.0983
H 0.972141 0.678778 0.511036 0.0983
H 0.972149 0.928711 0.511104 0.0983
H 0.518911 0.674815 0.507643 0.0983
H 0.518918 0.924745 0.507705 0.0983
H 0.768918 0.674841 0.507661 0.0983
H 0.768926 0.92477 0.507721 0.0983
H 0.701036 0.606375 0.859078 0.0983
H 0.70096 0.856352 0.859074 0.0983
H 0.951035 0.606368 0.859081 0.0983
H 0.950952 0.856346 0.859081 0.0983
H 0.664321 0.591562 0.88954 0.0983
H 0.664291 0.841519 0.889604 0.0983
H 0.914325 0.591548 0.889547 0.0983
H 0.914291 0.841502 0.889619 0.0983
H 0.648108 0.53176 0.874743 0.31454
H 0.648114 0.781717 0.874854 0.31454
H 0.898122 0.531748 0.874758 0.31454
H 0.898128 0.781704 0.874876 0.31454
H 0.680281 0.525255 0.912532 0.31454
H 0.680318 0.775233 0.91261 0.31454
H 0.930305 0.525239 0.912531 0.31454
H 0.930344 0.775215 0.912614 0.31454
H 0.688475 0.553447 0.823087 0.0983
H 0.688446 0.803399 0.823141 0.0983
H 0.93848 0.553439 0.823089 0.0983
H 0.938449 0.80339 0.823147 0.0983
H 0.724602 0.543557 0.85831 0.0983
H 0.724594 0.793549 0.858351 0.0983
H 0.974613 0.543554 0.858304 0.0983
H 0.974604 0.793547 0.85835 0.0983
H 0.692311 0.575963 0.692016 0.0983
H 0.692319 0.825965 0.692089 0.0983
H 0.942336 0.576011 0.69205 0.0983
H 0.942345 0.826013 0.692124 0.0983
H 0.694191 0.639289 0.939918 0.31454
H 0.694208 0.889332 0.939839 0.31454
H 0.944203 0.639286 0.939911 0.31454
H 0.944221 0.889332 0.93983 0.31454
H 0.5227 0.739991 0.728794 0.0983
H 0.522714 0.990008 0.728737 0.0983
H 0.772702 0.74002 0.72882 0.0983
H 0.772716 0.990036 0.728765 0.0983
H 0.700285 0.752223 0.692564 0.31454
H 0.700302 0.00221842 0.692481 0.31454
H 0.950313 0.75225 0.692521 0.31454
H 0.950331 0.00224467 0.692435 0.31454
H 0.726391 0.647364 0.632811 0.0983
H 0.72639 0.897301 0.63283 0.0983
H 0.976406 0.647358 0.632834 0.0983
H 0.976406 0.897292 0.632851 0.0983
H 0.697052 0.637384 0.677543 0.0983
H 0.697041 0.887395 0.677582 0.0983
H 0.947047 0.637412 0.677559 0.0983
H 0.947035 0.887423 0.677597 0.0983
H 0.505979 0.552078 0.582067 0.0983
H 0.505958 0.802008 0.582138 0.0983
H 0.755972 0.552102 0.582085 0.0983
H 0.755952 0.802034 0.582158 0.0983
H 0.69634 0.704474 0.628151 0.0983
H 0.696413 0.954427 0.628056 0.0983
H 0.946396 0.704479 0.628113 0.0983
H 0.946472 0.954431 0.628014 0.0983
H 0.667777 0.69376 0.672825 0.0983
H 0.667808 0.943792 0.672724 0.0983
H 0.917796 0.6938 0.672766 0.0983
H 0.917827 0.943833 0.67266 0.0983
H 0.730495 0.553745 0.754702 0.0983
H 0.730484 0.803731 0.754778 0.0983
H 0.980492 0.553752 0.754724 0.0983
H 0.980481 0.803739 0.7548 0.0983
H 0.526431 0.548793 0.744919 0.0983
H 0.526425 0.798776 0.745006 0.0983
H 0.776438 0.548819 0.744943 0.0983
H 0.77643 0.798803 0.745033 0.0983
C 0.622599 0.557473 0.62316 0.25189
C 0.622593 0.807437 0.62323 0.25189
C 0.872587 0.557501 0.623169 0.25189
C 0.87258 0.807465 0.62324 0.25189
C 0.590322 0.543717 0.567223 -0.09298
C 0.590315 0.79367 0.567298 -0.09298
C 0.840308 0.543747 0.567233 -0.09298
C 0.840301 0.793699 0.567309 -0.09298
C 0.619289 0.561342 0.552738 0.18052
C 0.619283 0.811289 0.552807 0.18052
C 0.86928 0.561365 0.552746 0.18052
C 0.869274 0.81131 0.552815 0.18052
C 0.606992 0.636066 0.97647 0.6158
C 0.606995 0.886135 0.976427 0.6158
C 0.856997 0.636084 0.976471 0.6158
C 0.857001 0.886158 0.976431 0.6158
C 0.615441 0.620037 0.519531 0.04907
C 0.615443 0.869979 0.519578 0.04907
C 0.865445 0.620059 0.519536 0.04907
C 0.865447 0.869997 0.519581 0.04907
C 0.618952 0.581164 0.511147 -0.30643
C 0.618946 0.831103 0.511208 -0.30643
C 0.868947 0.581185 0.511153 -0.30643
C 0.868942 0.831121 0.511214 -0.30643
C 0.567513 0.663683 0.618499 -0.30643
C 0.567479 0.913702 0.618472 -0.30643
C 0.817536 0.663701 0.618519 -0.30643
C 0.817502 0.91372 0.61849 -0.30643
C 0.571542 0.698757 0.642286 0.12371
C 0.571526 0.948784 0.642235 0.12371
C 0.821557 0.698778 0.642301 0.12371
C 0.821542 0.948804 0.642247 0.12371
C 0.620367 0.696535 0.813966 0.18052
C 0.620372 0.946542 0.813887 0.18052
C 0.870363 0.696537 0.813956 0.18052
C 0.870368 0.946543 0.813877 0.18052
C 0.590564 0.68029 0.828233 -0.09298
C 0.59057 0.930296 0.828159 -0.09298
C 0.840556 0.680297 0.828227 -0.09298
C 0.840563 0.930303 0.828154 -0.09298
C 0.611029 0.507046 0.718619 0.6158
C 0.611029 0.757026 0.718691 0.6158
C 0.861032 0.507066 0.718627 0.6158
C 0.861032 0.757048 0.7187 0.6158
C 0.621532 0.49862 0.765005 0.04907
C 0.621543 0.748606 0.765075 0.04907
C 0.871532 0.498628 0.76501 0.04907
C 0.871543 0.748616 0.765081 0.04907
C 0.588931 0.659144 0.576433 0.57738
C 0.588931 0.90912 0.57644 0.57738
C 0.838946 0.659165 0.576447 0.57738
C 0.838947 0.909139 0.576451 0.57738
C 0.574673 0.598499 0.853626 0.12371
C 0.574676 0.848523 0.853616 0.12371
C 0.824681 0.598505 0.853641 0.12371
C 0.824684 0.848532 0.853633 0.12371
C 0.622471 0.694259 0.88448 0.25189
C 0.62246 0.944304 0.884407 0.25189
C 0.872464 0.69427 0.884472 0.25189
C 0.872453 0.944317 0.884399 0.25189
C 0.569568 0.560613 0.841888 -0.30643
C 0.5696 0.810624 0.841949 -0.30643
C 0.819582 0.560618 0.841913 -0.30643
C 0.81962 0.810628 0.841983 -0.30643
C 0.625117 0.709622 0.76815 -0.30643
C 0.625111 0.959635 0.768071 -0.30643
C 0.875108 0.709631 0.768143 -0.30643
C 0.875101 0.959642 0.768063 -0.30643
C 0.596275 0.54674 0.809115 0.57738
C 0.596302 0.796738 0.809178 0.57738
C 0.846285 0.546746 0.809134 0.57738
C 0.846315 0.796745 0.809202 0.57738
C 0.497612 0.692868 0.877401 0.25189
C 0.497605 0.942903 0.87733 0.25189
C 0.747595 0.692857 0.877408 0.25189
C 0.747588 0.942893 0.877338 0.25189
C 0.715293 0.706597 0.933339 -0.09298
C 0.715286 0.956644 0.933264 -0.09298
C 0.965296 0.706597 0.933338 -0.09298
C 0.965289 0.956647 0.933261 -0.09298
C 0.744268 0.688987 0.947829 0.18052
C 0.744263 0.939041 0.947761 0.18052
C 0.994276 0.688999 0.947847 0.18052
C 0.994271 0.939055 0.947778 0.18052
C 0.731996 0.614259 0.524094 0.6158
C 0.731999 0.864188 0.524135 0.6158
C 0.982003 0.61425 0.524094 0.6158
C 0.982007 0.864175 0.524134 0.6158
C 0.740438 0.63029 0.98103 0.04907
C 0.74044 0.88035 0.980984 0.04907
C 0.990445 0.630283 0.981029 0.04907
C 0.990447 0.880347 0.980984 0.04907
C 0.743932 0.669164 0.989418 -0.30643
C 0.743927 0.919227 0.989357 -0.30643
C 0.993941 0.669158 0.989423 -0.30643
C 0.993936 0.919223 0.989362 -0.30643
C 0.692544 0.586644 0.882056 -0.30643
C 0.692512 0.836625 0.882083 -0.30643
C 0.942548 0.586635 0.882059 -0.30643
C 0.942513 0.836616 0.882091 -0.30643
C 0.696569 0.551564 0.858279 0.12371
C 0.696555 0.801538 0.85833 0.12371
C 0.946578 0.551557 0.858279 0.12371
C 0.946563 0.80153 0.858335 0.12371
C 0.745355 0.553802 0.686607 0.18052
C 0.745361 0.803795 0.686687 0.18052
C 0.995385 0.553857 0.686641 0.18052
C 0.99539 0.803851 0.686722 0.18052
C 0.715546 0.570036 0.672339 -0.09298
C 0.715552 0.82003 0.672412 -0.09298
C 0.965564 0.570072 0.672363 -0.09298
C 0.96557 0.820066 0.672437 -0.09298
C 0.73603 0.743268 0.781931 0.6158
C 0.73603 0.993287 0.781859 0.6158
C 0.986033 0.743266 0.781923 0.6158
C 0.986033 0.993283 0.781848 0.6158
C 0.996531 0.751724 0.735542 0.04907
C 0.996542 0.00173491 0.735469 0.04907
C 0.746525 0.751707 0.735544 0.04907
C 0.746536 0.00171943 0.735474 0.04907
C 0.713944 0.591179 0.924131 0.57738
C 0.713945 0.841204 0.924125 0.57738
C 0.963949 0.591172 0.924133 0.57738
C 0.963949 0.841199 0.92413 0.57738
C 0.699672 0.651835 0.646926 0.12371
C 0.699675 0.901809 0.646936 0.12371
C 0.949684 0.651847 0.646931 0.12371
C 0.949687 0.90182 0.646938 0.12371
C 0.497494 0.556087 0.616076 0.25189
C 0.497483 0.80604 0.616148 0.25189
C 0.747474 0.556083 0.616094 0.25189
C 0.747464 0.806037 0.616167 0.25189
C 0.694566 0.68972 0.658668 -0.30643
C 0.694602 0.93971 0.658602 -0.30643
C 0.944592 0.68974 0.65864 -0.30643
C 0.944629 0.939729 0.65857 -0.30643
C 0.750097 0.540706 0.732417 -0.30643
C 0.75009 0.790694 0.732496 -0.30643
C 0.000102039 0.540724 0.732438 -0.30643
C 9.52028e-05 0.790713 0.732519 -0.30643
C 0.721271 0.70359 0.691435 0.57738
C 0.721301 0.953591 0.691369 0.57738
C 0.971283 0.70361 0.691426 0.57738
C 0.971313 0.95361 0.691357 0.57738
N 0.548272 0.610512 0.885791 -0.64634
N 0.548265 0.860551 0.885759 -0.64634
N 0.798279 0.610517 0.885805 -0.64634
N 0.798274 0.860558 0.885778 -0.64634
N 0.591953 0.678712 0.872545 -0.44443
N 0.59195 0.928743 0.872475 -0.44443
N 0.841944 0.678725 0.87254 -0.44443
N 0.841941 0.928758 0.872471 -0.44443
N 0.592412 0.541551 0.611396 -0.44443
N 0.592404 0.791514 0.611473 -0.44443
N 0.842396 0.541585 0.611407 -0.44443
N 0.842388 0.791548 0.611484 -0.44443
N 0.639652 0.569757 0.58816 -0.44443
N 0.639647 0.819711 0.588225 -0.44443
N 0.889643 0.56978 0.588168 -0.44443
N 0.889638 0.819732 0.588233 -0.44443
N 0.549777 0.724479 0.62193 -0.64634
N 0.549788 0.974511 0.621846 -0.64634
N 0.799791 0.724495 0.621937 -0.64634
N 0.799803 0.974527 0.62185 -0.64634
N 0.640427 0.705656 0.849381 -0.44443
N 0.64042 0.955687 0.849303 -0.44443
N 0.890421 0.705661 0.849371 -0.44443
N 0.890415 0.955692 0.849292 -0.44443
N 0.588459 0.62884 0.553261 -0.43464
N 0.588469 0.878796 0.553313 -0.43464
N 0.838464 0.628867 0.553266 -0.43464
N 0.838474 0.87882 0.553316 -0.43464
N 0.595771 0.513233 0.796803 -0.43464
N 0.595791 0.763229 0.796879 -0.43464
N 0.845774 0.513241 0.796811 -0.43464
N 0.845795 0.763239 0.796889 -0.43464
N 0.67327 0.639824 0.614771 -0.64634
N 0.673265 0.889784 0.6148 -0.64634
N 0.923288 0.639832 0.614772 -0.64634
N 0.923283 0.889791 0.614799 -0.64634
N 0.716945 0.571616 0.628027 -0.44443
N 0.716941 0.821584 0.628096 -0.44443
N 0.966928 0.571593 0.628043 -0.44443
N 0.966925 0.82156 0.628112 -0.44443
N 0.717392 0.708762 0.889167 -0.44443
N 0.717384 0.958797 0.88909 -0.44443
N 0.96738 0.708728 0.889159 -0.44443
N 0.967372 0.958766 0.889081 -0.44443
N 0.514656 0.680587 0.912408 -0.44443
N 0.514652 0.930633 0.912342 -0.44443
N 0.764648 0.680583 0.912411 -0.44443
N 0.764643 0.93063 0.912346 -0.44443
N 0.674784 0.525854 0.878634 -0.64634
N 0.674796 0.775823 0.878718 -0.64634
N 0.9248 0.525842 0.878636 -0.64634
N 0.924812 0.77581 0.878725 -0.64634
N 0.515444 0.544697 0.65118 -0.44443
N 0.515438 0.794664 0.651257 -0.44443
N 0.765428 0.544691 0.651194 -0.44443
N 0.765422 0.79466 0.651272 -0.44443
N 0.71346 0.621482 0.947306 -0.43464
N 0.713471 0.871527 0.947255 -0.43464
N 0.963469 0.621477 0.947303 -0.43464
N 0.963479 0.871524 0.947253 -0.43464
N 0.720765 0.737097 0.703752 -0.43464
N 0.720786 0.9871 0.703676 -0.43464
N 0.97078 0.737119 0.703734 -0.43464
N 0.970801 0.98712 0.703655 -0.43464
O 0.577836 0.651238 0.971426 -0.59613
O 0.577833 0.901295 0.971377 -0.59613
O 0.827842 0.651257 0.971427 -0.59613
O 0.827839 0.901318 0.97138 -0.59613
O 0.627735 0.630576 0.942202 -0.58866
O 0.62775 0.880663 0.942167 -0.58866
O 0.877741 0.630591 0.942204 -0.58866
O 0.877757 0.880683 0.942171 -0.58866
O 0.57939 0.515539 0.710532 -0.59613
O 0.579385 0.765509 0.710611 -0.59613
O 0.829393 0.515558 0.71054 -0.59613
O 0.829388 0.765529 0.710621 -0.59613
O 0.609088 0.683967 0.563182 -0.58866
O 0.609094 0.933931 0.563164 -0.58866
O 0.859114 0.683984 0.563206 -0.58866
O 0.859119 0.933946 0.563183 -0.58866
O 0.633402 0.502027 0.685901 -0.58866
O 0.633397 0.752006 0.685968 -0.58866
O 0.883409 0.502057 0.68591 -0.58866
O 0.883403 0.752037 0.685978 -0.58866
O 0.619546 0.567118 0.79166 -0.58866
O 0.619581 0.817107 0.791719 -0.58866
O 0.869562 0.567122 0.791688 -0.58866
O 0.8696 0.817112 0.791752 -0.58866
O 0.702844 0.599083 0.529145 -0.59613
O 0.702841 0.849024 0.529192 -0.59613
O 0.95285 0.599077 0.529147 -0.59613
O 0.952847 0.849014 0.529194 -0.59613
O 0.502735 0.619725 0.558327 -0.58866
O 0.502749 0.869636 0.558361 -0.58866
O 0.752735 0.619756 0.558357 -0.58866
O 0.752751 0.869667 0.55839 -0.58866
O 0.704392 0.734779 0.79003 -0.59613
O 0.704387 0.984808 0.789951 -0.59613
O 0.954395 0.734774 0.790018 -0.59613
O 0.95439 0.984802 0.789935 -0.59613
O 0.984108 0.56635 0.937384 -0.58866
O 0.984112 0.81639 0.937408 -0.58866
O 0.734103 0.566357 0.937381 -0.58866
O 0.73411 0.816395 0.937401 -0.58866
O 0.508406 0.74826 0.814615 -0.58866
O 0.5084 0.99828 0.814547 -0.58866
O 0.758405 0.748286 0.81464 -0.58866
O 0.758399 0.998307 0.814574 -0.58866
O 0.994544 0.683227 0.708891 -0.58866
O 0.994581 0.933237 0.708826 -0.58866
O 0.744543 0.683209 0.708883 -0.58866
O 0.744579 0.93322 0.708821 -0.58866
