_cell_length_a 35.478
_cell_length_b 35.43799961226064
_cell_length_c 35.426000219343784
_cell_angle_alpha 96.74100043118571
_cell_angle_beta 96.79599968513409
_cell_angle_gamma 96.63900037605235
_symmetry_space_group_name_H-M         'P 1'
_symmetry_Int_Tables_number            1
loop_
_symmetry_equiv_pos_as_xyz
   'x, y, z'
                         
loop_
_atom_site_label
_atom_site_type_symbol
_atom_site_fract_x 
_atom_site_fract_y
_atom_site_fract_z
_atom_site_charge
Cu Cu 0.161058 0.450706 0.45851 0.92675
Cu Cu 0.442974 0.151503 0.440018 0.92675
Cu Cu 0.456842 0.458328 0.157793 0.92675
Cu Cu 0.418563 0.0776623 0.413709 0.92675
Cu Cu 0.425368 0.434506 0.0861057 0.92675
Cu Cu 0.0869383 0.429451 0.435436 0.92675
H H 0.136955 0.250354 0.374802 0.10418
H H 0.116863 0.315683 0.381242 0.10418
H H 0.172696 0.260594 0.495772 0.10418
H H 0.157045 0.330119 0.502282 0.10418
H H 0.106392 0.187291 0.449413 0.10418
H H 0.0580638 0.137481 0.409359 0.10418
H H 0.369181 0.121572 0.229123 0.10418
H H 0.37606 0.102658 0.296657 0.10418
H H 0.475915 0.201968 0.268265 0.10418
H H 0.476033 0.182629 0.33063 0.10418
H H 0.413888 0.115385 0.177821 0.10418
H H 0.449007 0.0771084 0.144153 0.10418
H H 0.248272 0.382165 0.140413 0.10418
H H 0.316455 0.384203 0.122332 0.10418
H H 0.277268 0.499022 0.190945 0.10418
H H 0.347205 0.494129 0.18565 0.10418
H H 0.196892 0.436143 0.115885 0.10418
H H 0.158648 0.464591 0.0824321 0.10418
H H 0.23264 0.11123 0.37147 0.10418
H H 0.298976 0.0951375 0.377613 0.10418
H H 0.262731 0.181907 0.484749 0.10418
H H 0.331975 0.175271 0.481472 0.10418
H H 0.17658 0.107197 0.412126 0.10418
H H 0.146206 0.0756146 0.451494 0.10418
H H 0.138647 0.388392 0.250672 0.10418
H H 0.116317 0.386256 0.313054 0.10418
H H 0.203889 0.497833 0.285819 0.10418
H H 0.18833 0.492248 0.354448 0.10418
H H 0.1189 0.457943 0.203372 0.10418
H H 0.0732503 0.440281 0.157297 0.10418
H H 0.413947 0.244755 0.0981127 0.10418
H H 0.409721 0.310996 0.0868992 0.10418
H H 0.48779 0.284129 0.206232 0.10418
H H 0.483933 0.351132 0.193745 0.10418
H H 0.461389 0.194694 0.108609 0.10418
H H 0.428128 0.153275 0.0623512 0.10418
H H 0.222959 0.225773 0.434617 0.10418
H H 0.0286242 0.0315151 0.454106 0.10418
H H 0.440522 0.234451 0.221269 0.10418
H H 0.427737 0.0332345 0.0228944 0.10418
H H 0.236383 0.445212 0.236723 0.10418
H H 0.039485 0.445619 0.0378203 0.10418
C C 0.139565 0.327612 0.441966 -0.02055
C C 0.140018 0.266118 0.402414 -0.08836
C C 0.131429 0.303983 0.405809 -0.08836
C C 0.15399 0.251121 0.436671 -0.02055
C C 0.163516 0.274467 0.470694 -0.08836
C C 0.156615 0.3136 0.474762 -0.08836
C C 0.135139 0.368875 0.442249 0.66798
C C 0.997205 0.0942046 0.426475 0.66798
C C 0.160119 0.209832 0.433815 -0.02055
C C 0.132169 0.180917 0.437145 -0.08836
C C 0.0380555 0.085314 0.429596 -0.02055
C C 0.0679242 0.114165 0.420906 -0.08836
C C 0.425769 0.142398 0.317398 -0.02055
C C 0.396038 0.133207 0.250046 -0.08836
C C 0.396659 0.125109 0.289076 -0.08836
C C 0.424197 0.162167 0.241435 -0.02055
C C 0.453618 0.17871 0.271979 -0.08836
C C 0.454051 0.167946 0.307534 -0.08836
C C 0.429948 0.130492 0.356721 0.66798
C C 0.440347 0.00987751 0.0927748 0.66798
C C 0.425787 0.17295 0.203073 -0.02055
C C 0.421228 0.142903 0.171672 -0.08836
C C 0.439741 0.0500796 0.0835589 -0.02055
C C 0.442313 0.0814739 0.113277 -0.08836
C C 0.336085 0.439156 0.156117 -0.02055
C C 0.269263 0.408307 0.145518 -0.08836
C C 0.308102 0.406449 0.142191 -0.08836
C C 0.258447 0.441058 0.165404 -0.02055
C C 0.286554 0.472904 0.180326 -0.08836
C C 0.325869 0.469611 0.178309 -0.08836
C C 0.373626 0.443966 0.143433 0.66798
C C 0.110798 0.446547 0.0156772 0.66798
C C 0.219865 0.440449 0.175364 -0.02055
C C 0.189739 0.440233 0.146296 -0.08836
C C 0.101532 0.450354 0.0562227 -0.02055
C C 0.129515 0.455815 0.0875222 -0.08836
C C 0.319599 0.136392 0.427017 -0.02055
C C 0.254011 0.126522 0.395682 -0.08836
C C 0.290767 0.116241 0.398883 -0.08836
C C 0.243819 0.153208 0.426093 -0.02055
C C 0.271503 0.169131 0.458373 -0.08836
C C 0.310179 0.16216 0.456561 -0.08836
C C 0.360313 0.127392 0.426415 0.66798
C C 0.100138 0.00810596 0.448077 0.66798
C C 0.204257 0.165168 0.422133 -0.02055
C C 0.174173 0.136569 0.419812 -0.08836
C C 0.0886081 0.0475787 0.447468 -0.02055
C C 0.116226 0.078519 0.445524 -0.08836
C C 0.149664 0.440064 0.337447 -0.02055
C C 0.145459 0.412298 0.271125 -0.08836
C C 0.134308 0.409826 0.307751 -0.08836
C C 0.168494 0.444197 0.264133 -0.02055
C C 0.183635 0.474756 0.293728 -0.08836
C C 0.173667 0.472411 0.330102 -0.08836
C C 0.139275 0.438864 0.375977 0.66798
C C 0.0110894 0.438145 0.107551 0.66798
C C 0.175213 0.446489 0.222947 -0.02055
C C 0.146763 0.452611 0.19455 -0.08836
C C 0.0512571 0.441461 0.0980677 -0.02055
C C 0.0810751 0.440828 0.128857 -0.08836
C C 0.447867 0.33564 0.138354 -0.02055
C C 0.430039 0.266464 0.119347 -0.08836
C C 0.42894 0.305005 0.112878 -0.08836
C C 0.452092 0.258465 0.153083 -0.02055
C C 0.472389 0.289199 0.179375 -0.08836
C C 0.468699 0.328072 0.173255 -0.08836
C C 0.442474 0.37473 0.133312 0.66798
C C 0.430448 0.098924 0.994248 0.66798
C C 0.451492 0.218513 0.163681 -0.02055
C C 0.450787 0.187982 0.134345 -0.08836
C C 0.427701 0.0923017 0.0358592 -0.02055
C C 0.428642 0.124495 0.0663113 -0.08836
C C 0.198805 0.202244 0.431707 -0.08836
C C 0.138277 0.143957 0.430658 -0.02055
C C 0.107079 0.110604 0.429397 -0.02055
C C 0.0499215 0.0532043 0.445097 -0.08836
C C 0.43823 0.210637 0.197678 -0.08836
C C 0.437679 0.150218 0.137842 -0.02055
C C 0.437161 0.118313 0.10476 -0.02055
C C 0.43208 0.0563361 0.0455631 -0.08836
C C 0.212774 0.443594 0.213658 -0.08836
C C 0.152647 0.447476 0.155341 -0.02055
C C 0.121246 0.445224 0.122148 -0.02055
C C 0.0619995 0.444507 0.0610289 -0.08836
O O 0.160359 0.394903 0.460075 -0.56768
O O 0.47374 0.0775057 0.408512 -0.56768
O O 0.991553 0.126743 0.442008 -0.56768
O O 0.101388 0.376688 0.432108 -0.56768
O O 0.439726 0.156994 0.384085 -0.56768
O O 0.427389 0.490087 0.0833756 -0.56768
O O 0.448289 0.00486285 0.127923 -0.56768
O O 0.415559 0.0968123 0.361865 -0.56768
O O 0.402111 0.448834 0.16877 -0.56768
O O 0.0816078 0.432616 0.490295 -0.56768
O O 0.145094 0.458639 0.0112242 -0.56768
O O 0.37544 0.434082 0.108648 -0.56768
O O 0.387094 0.15396 0.441352 -0.56768
O O 0.0834844 0.485382 0.440289 -0.56768
O O 0.134121 0.00258714 0.461875 -0.56768
O O 0.365717 0.0926404 0.418931 -0.56768
O O 0.16764 0.441903 0.403189 -0.56768
O O 0.480518 0.439936 0.0743691 -0.56768
O O 0.00593037 0.449792 0.143105 -0.56768
O O 0.104762 0.432886 0.38391 -0.56768
O O 0.455727 0.402032 0.161513 -0.56768
O O 0.431576 0.0715916 0.469444 -0.56768
O O 0.440889 0.132484 0.987692 -0.56768
O O 0.428394 0.384278 0.101685 -0.56768
Cu Cu 0.165709 0.460496 0.960736 0.92675
Cu Cu 0.446939 0.14777 0.935469 0.92675
Cu Cu 0.456074 0.443989 0.650498 0.92675
Cu Cu 0.417185 0.0755482 0.912505 0.92675
Cu Cu 0.428778 0.421717 0.577842 0.92675
Cu Cu 0.0924878 0.437925 0.930726 0.92675
H H 0.116999 0.247132 0.89575 0.10418
H H 0.112114 0.315383 0.894464 0.10418
H H 0.190734 0.27985 0.00369066 0.10418
H H 0.181541 0.347283 0.00325608 0.10418
H H 0.11363 0.194567 0.962405 0.10418
H H 0.0674575 0.152641 0.926382 0.10418
H H 0.362869 0.161916 0.747805 0.10418
H H 0.366095 0.141428 0.809481 0.10418
H H 0.47927 0.139677 0.740764 0.10418
H H 0.485399 0.121826 0.804072 0.10418
H H 0.409484 0.101164 0.67311 0.10418
H H 0.454944 0.0696226 0.641017 0.10418
H H 0.250623 0.374368 0.639439 0.10418
H H 0.312996 0.371571 0.619124 0.10418
H H 0.288698 0.485466 0.706986 0.10418
H H 0.351682 0.486262 0.680805 0.10418
H H 0.197146 0.426129 0.615247 0.10418
H H 0.160722 0.457215 0.583763 0.10418
H H 0.23499 0.134691 0.871299 0.10418
H H 0.297148 0.110859 0.869906 0.10418
H H 0.277175 0.195029 0.982762 0.10418
H H 0.336359 0.171035 0.980461 0.10418
H H 0.186684 0.119369 0.919192 0.10418
H H 0.151876 0.0749823 0.946895 0.10418
H H 0.12766 0.410556 0.743665 0.10418
H H 0.113254 0.404067 0.808535 0.10418
H H 0.219296 0.497748 0.78711 0.10418
H H 0.210783 0.48582 0.854836 0.10418
H H 0.125014 0.470787 0.692894 0.10418
H H 0.0796356 0.427017 0.656004 0.10418
H H 0.393541 0.23527 0.596365 0.10418
H H 0.391188 0.299452 0.586513 0.10418
H H 0.477231 0.268639 0.699271 0.10418
H H 0.472511 0.334603 0.68836 0.10418
H H 0.449753 0.18387 0.602394 0.10418
H H 0.411977 0.13867 0.556256 0.10418
H H 0.226162 0.238114 0.948373 0.10418
H H 0.0298063 0.0379517 0.944315 0.10418
H H 0.422311 0.224943 0.712986 0.10418
H H 0.449132 0.028815 0.523653 0.10418
H H 0.238848 0.453088 0.735484 0.10418
H H 0.03873 0.454271 0.544463 0.10418
C C 0.141495 0.335958 0.950713 -0.02055
C C 0.131189 0.26778 0.920708 -0.08836
C C 0.127997 0.307146 0.919612 -0.08836
C C 0.154877 0.259477 0.952434 -0.02055
C C 0.172832 0.287615 0.981766 -0.08836
C C 0.16682 0.326904 0.980604 -0.08836
C C 0.139165 0.378029 0.946166 0.66798
C C 0.00573718 0.107032 0.939349 0.66798
C C 0.166978 0.22112 0.95034 -0.02055
C C 0.139532 0.189727 0.951174 -0.08836
C C 0.0450085 0.0975465 0.940525 -0.02055
C C 0.0760564 0.12689 0.937186 -0.08836
C C 0.426333 0.134791 0.814163 -0.02055
C C 0.388769 0.153672 0.758263 -0.08836
C C 0.391703 0.144569 0.795797 -0.08836
C C 0.420528 0.152769 0.739009 -0.02055
C C 0.455756 0.145092 0.756839 -0.08836
C C 0.458448 0.133217 0.793312 -0.08836
C C 0.429191 0.125938 0.853526 0.66798
C C 0.449032 0.0042663 0.590699 0.66798
C C 0.417687 0.161097 0.699565 -0.02055
C C 0.417446 0.131424 0.668711 -0.08836
C C 0.448698 0.0443788 0.582206 -0.02055
C C 0.444666 0.0731287 0.611101 -0.08836
C C 0.332514 0.431846 0.641136 -0.02055
C C 0.269999 0.40017 0.644306 -0.08836
C C 0.306737 0.398728 0.633993 -0.08836
C C 0.262389 0.433139 0.665944 -0.02055
C C 0.291002 0.464539 0.680147 -0.08836
C C 0.326729 0.463415 0.666935 -0.08836
C C 0.372625 0.430525 0.631645 0.66798
C C 0.108719 0.445905 0.516341 0.66798
C C 0.223778 0.439826 0.67355 -0.02055
C C 0.192723 0.436749 0.643517 -0.08836
C C 0.0999566 0.451593 0.5568 -0.02055
C C 0.13159 0.451152 0.586505 -0.08836
C C 0.32235 0.137972 0.925326 -0.02055
C C 0.257383 0.144416 0.894778 -0.08836
C C 0.293896 0.131158 0.893446 -0.08836
C C 0.249795 0.165729 0.928045 -0.02055
C C 0.281316 0.177914 0.957175 -0.08836
C C 0.315882 0.162589 0.957185 -0.08836
C C 0.361897 0.127463 0.924505 0.66798
C C 0.10352 0.0146553 0.946827 0.66798
C C 0.211016 0.176849 0.933685 -0.02055
C C 0.179445 0.147211 0.925318 -0.08836
C C 0.0931993 0.0546755 0.947909 -0.02055
C C 0.122163 0.0829605 0.944544 -0.08836
C C 0.156449 0.451304 0.836319 -0.02055
C C 0.141113 0.432019 0.768126 -0.08836
C C 0.132968 0.429837 0.804561 -0.08836
C C 0.17133 0.45814 0.761125 -0.02055
C C 0.197594 0.476523 0.791715 -0.08836
C C 0.189565 0.473185 0.828905 -0.08836
C C 0.147342 0.447034 0.8755 0.66798
C C 0.014505 0.441546 0.610674 0.66798
C C 0.180263 0.459544 0.720002 -0.02055
C C 0.151002 0.457659 0.688919 -0.08836
C C 0.0543582 0.445079 0.602595 -0.02055
C C 0.0850639 0.4363 0.629151 -0.08836
C C 0.435882 0.323248 0.63478 -0.02055
C C 0.412995 0.255911 0.615288 -0.08836
C C 0.412072 0.294095 0.609598 -0.08836
C C 0.436759 0.245775 0.646813 -0.02055
C C 0.460147 0.273934 0.67154 -0.08836
C C 0.457324 0.312653 0.667564 -0.08836
C C 0.438559 0.363532 0.628181 0.66798
C C 0.440842 0.0985465 0.498044 0.66798
C C 0.434662 0.207088 0.656673 -0.02055
C C 0.438861 0.177845 0.628418 -0.08836
C C 0.438025 0.0881259 0.537169 -0.02055
C C 0.427699 0.114231 0.56542 -0.08836
C C 0.203626 0.214749 0.945515 -0.08836
C C 0.144763 0.151844 0.938954 -0.02055
C C 0.114551 0.120361 0.94187 -0.02055
C C 0.0543553 0.0609458 0.945609 -0.08836
C C 0.42336 0.19936 0.691396 -0.08836
C C 0.426322 0.139668 0.633361 -0.02055
C C 0.430306 0.106963 0.603433 -0.02055
C C 0.445111 0.0521009 0.54515 -0.08836
C C 0.216839 0.452342 0.711665 -0.08836
C C 0.155682 0.442973 0.652997 -0.02055
C C 0.124243 0.445204 0.623464 -0.02055
C C 0.0614062 0.450443 0.565945 -0.08836
O O 0.169662 0.403603 0.957332 -0.56768
O O 0.471261 0.0677008 0.909859 -0.56768
O O 0.997774 0.141379 0.94743 -0.56768
O O 0.107474 0.386574 0.929886 -0.56768
O O 0.44382 0.152823 0.878822 -0.56768
O O 0.426591 0.477293 0.571761 -0.56768
O O 0.461412 0.999978 0.625119 -0.56768
O O 0.418601 0.0909097 0.858607 -0.56768
O O 0.401657 0.440511 0.658294 -0.56768
O O 0.0846791 0.438524 0.987935 -0.56768
O O 0.143764 0.454578 0.510443 -0.56768
O O 0.376385 0.420248 0.597051 -0.56768
O O 0.39112 0.154833 0.933376 -0.56768
O O 0.0866174 0.493357 0.935766 -0.56768
O O 0.138506 0.011466 0.956261 -0.56768
O O 0.366494 0.0934343 0.913906 -0.56768
O O 0.174161 0.460094 0.904844 -0.56768
O O 0.485665 0.431038 0.571024 -0.56768
O O 0.00582132 0.449385 0.644854 -0.56768
O O 0.111923 0.443205 0.879928 -0.56768
O O 0.454401 0.388934 0.655999 -0.56768
O O 0.421834 0.0698933 0.968101 -0.56768
O O 0.44579 0.133757 0.493186 -0.56768
O O 0.43663 0.370811 0.593519 -0.56768
Cu Cu 0.156007 0.953866 0.45424 0.92675
Cu Cu 0.464737 0.658253 0.457285 0.92675
Cu Cu 0.447841 0.953236 0.151183 0.92675
Cu Cu 0.438638 0.587406 0.430357 0.92675
Cu Cu 0.419482 0.926887 0.0781326 0.92675
Cu Cu 0.0841109 0.924368 0.42704 0.92675
H H 0.120847 0.739361 0.379011 0.10418
H H 0.106014 0.806718 0.383543 0.10418
H H 0.203465 0.776548 0.482066 0.10418
H H 0.191487 0.844637 0.481191 0.10418
H H 0.118792 0.682477 0.418385 0.10418
H H 0.0898161 0.656511 0.463603 0.10418
H H 0.381473 0.661089 0.25883 0.10418
H H 0.386118 0.644892 0.324695 0.10418
H H 0.503862 0.681271 0.268934 0.10418
H H 0.50673 0.669831 0.337935 0.10418
H H 0.460633 0.6273 0.196478 0.10418
H H 0.422004 0.574463 0.153466 0.10418
H H 0.269637 0.895517 0.197701 0.10418
H H 0.337613 0.904307 0.184454 0.10418
H H 0.248818 0.992483 0.138382 0.10418
H H 0.310173 0.992176 0.114005 0.10418
H H 0.189947 0.916208 0.118147 0.10418
H H 0.155273 0.948606 0.0754992 0.10418
H H 0.254927 0.641462 0.395525 0.10418
H H 0.316938 0.623261 0.392112 0.10418
H H 0.287504 0.693891 0.5127 0.10418
H H 0.353428 0.676487 0.510609 0.10418
H H 0.206816 0.628842 0.476704 0.10418
H H 0.164852 0.571004 0.444887 0.10418
H H 0.144456 0.896569 0.249083 0.10418
H H 0.131985 0.889601 0.31502 0.10418
H H 0.18351 0.0139522 0.281637 0.10418
H H 0.166399 0.0136975 0.345324 0.10418
H H 0.11375 0.963712 0.192711 0.10418
H H 0.0697705 0.933558 0.149858 0.10418
H H 0.368733 0.74505 0.117868 0.10418
H H 0.373759 0.80928 0.10141 0.10418
H H 0.472795 0.778035 0.195751 0.10418
H H 0.476009 0.84316 0.183057 0.10418
H H 0.403589 0.688457 0.113678 0.10418
H H 0.446123 0.659947 0.0787179 0.10418
H H 0.239725 0.733923 0.433034 0.10418
H H 0.050779 0.539486 0.465118 0.10418
H H 0.427489 0.738709 0.231547 0.10418
H H 0.44858 0.541588 0.0430613 0.10418
H H 0.231699 0.960919 0.239042 0.10418
H H 0.034434 0.937565 0.0308449 0.10418
C C 0.152862 0.831857 0.428338 -0.02055
C C 0.137937 0.763354 0.400198 -0.08836
C C 0.13084 0.800978 0.401488 -0.08836
C C 0.164956 0.754974 0.429685 -0.02055
C C 0.186926 0.784628 0.45636 -0.08836
C C 0.178724 0.823092 0.456912 -0.08836
C C 0.142462 0.872015 0.426938 0.66798
C C 0.0236876 0.60792 0.457478 0.66798
C C 0.176488 0.715315 0.429804 -0.02055
C C 0.149109 0.68219 0.427638 -0.08836
C C 0.0643533 0.597993 0.461111 -0.02055
C C 0.0954877 0.626993 0.45795 -0.08836
C C 0.446128 0.654966 0.335289 -0.02055
C C 0.408497 0.66294 0.276167 -0.08836
C C 0.410414 0.653339 0.313264 -0.08836
C C 0.44235 0.673879 0.259757 -0.02055
C C 0.477875 0.676275 0.282112 -0.08836
C C 0.479555 0.668067 0.320149 -0.08836
C C 0.447627 0.643224 0.374215 0.66798
C C 0.440557 0.516118 0.111228 0.66798
C C 0.439627 0.680318 0.219205 -0.02055
C C 0.446206 0.651689 0.189927 -0.08836
C C 0.444824 0.555174 0.10352 -0.02055
C C 0.435797 0.583604 0.129172 -0.08836
C C 0.328275 0.947976 0.14638 -0.02055
C C 0.278524 0.917943 0.179256 -0.08836
C C 0.316863 0.92098 0.169961 -0.08836
C C 0.254385 0.941974 0.166708 -0.02055
C C 0.26601 0.969436 0.142863 -0.08836
C C 0.30345 0.97185 0.132294 -0.08836
C C 0.367137 0.950972 0.135521 0.66798
C C 0.104815 0.943829 0.00939069 0.66798
C C 0.21465 0.939567 0.177006 -0.02055
C C 0.18476 0.929921 0.145785 -0.08836
C C 0.0963989 0.943926 0.0486707 -0.02055
C C 0.125601 0.945104 0.0797301 -0.08836
C C 0.342447 0.648025 0.451768 -0.02055
C C 0.276691 0.647473 0.421188 -0.08836
C C 0.312469 0.63568 0.419828 -0.08836
C C 0.267571 0.669327 0.452789 -0.02055
C C 0.293356 0.674521 0.487741 -0.08836
C C 0.331048 0.663811 0.48712 -0.08836
C C 0.382487 0.639336 0.451284 0.66798
C C 0.112357 0.51107 0.448023 0.66798
C C 0.228155 0.678965 0.452476 -0.02055
C C 0.200042 0.650451 0.459437 -0.08836
C C 0.106712 0.550907 0.447512 -0.02055
C C 0.137152 0.579421 0.446551 -0.08836
C C 0.147898 0.950471 0.333791 -0.02055
C C 0.145165 0.921572 0.268625 -0.08836
C C 0.140843 0.917106 0.3067 -0.08836
C C 0.158718 0.95794 0.258229 -0.02055
C C 0.169044 0.989096 0.287124 -0.08836
C C 0.163464 0.98633 0.324843 -0.08836
C C 0.134764 0.947628 0.371237 0.66798
C C 0.00995027 0.940399 0.101052 0.66798
C C 0.170168 0.961554 0.220326 -0.02055
C C 0.140069 0.953227 0.187854 -0.08836
C C 0.0497428 0.940476 0.093142 -0.02055
C C 0.0792865 0.937949 0.122419 -0.08836
C C 0.4226 0.832623 0.143459 -0.02055
C C 0.390912 0.766674 0.1339 -0.08836
C C 0.392719 0.803081 0.124773 -0.08836
C C 0.420268 0.756288 0.158807 -0.02055
C C 0.448713 0.78512 0.176213 -0.08836
C C 0.451307 0.822567 0.168249 -0.08836
C C 0.427026 0.872829 0.134592 0.66798
C C 0.449714 0.607762 0.0178486 0.66798
C C 0.415528 0.717544 0.170815 -0.02055
C C 0.415248 0.686367 0.142112 -0.08836
C C 0.453771 0.601645 0.0587328 -0.02055
C C 0.445432 0.629442 0.0858315 -0.08836
C C 0.217379 0.710768 0.434962 -0.08836
C C 0.161069 0.649676 0.442351 -0.02055
C C 0.131694 0.618071 0.45261 -0.02055
C C 0.0714536 0.560471 0.45522 -0.08836
C C 0.428378 0.714781 0.208667 -0.08836
C C 0.432974 0.654653 0.151066 -0.02055
C C 0.43471 0.621163 0.121849 -0.02055
C C 0.451751 0.563935 0.066614 -0.08836
C C 0.206812 0.954901 0.214862 -0.08836
C C 0.147953 0.940503 0.150538 -0.02055
C C 0.117489 0.937578 0.116814 -0.02055
C C 0.0585015 0.942593 0.0558073 -0.08836
O O 0.166206 0.899178 0.445372 -0.56768
O O 0.494918 0.580697 0.431537 -0.56768
O O 0.017981 0.642181 0.467843 -0.56768
O O 0.105835 0.873829 0.420771 -0.56768
O O 0.458218 0.668554 0.403157 -0.56768
O O 0.424791 0.981972 0.0671753 -0.56768
O O 0.449611 0.509405 0.1448 -0.56768
O O 0.436954 0.608521 0.378051 -0.56768
O O 0.395317 0.962738 0.16174 -0.56768
O O 0.079319 0.918661 0.481147 -0.56768
O O 0.138519 0.955628 0.00508147 -0.56768
O O 0.37105 0.938101 0.100797 -0.56768
O O 0.410307 0.666951 0.457408 -0.56768
O O 0.0744828 0.979523 0.435454 -0.56768
O O 0.146188 0.503431 0.456162 -0.56768
O O 0.387753 0.605471 0.436859 -0.56768
O O 0.160879 0.959415 0.400079 -0.56768
O O 0.473462 0.924761 0.0698287 -0.56768
O O 0.00280539 0.945946 0.134883 -0.56768
O O 0.100911 0.933055 0.376042 -0.56768
O O 0.441152 0.900742 0.159832 -0.56768
O O 0.445245 0.577667 0.484867 -0.56768
O O 0.460626 0.640618 0.00979424 -0.56768
O O 0.417919 0.878515 0.100484 -0.56768
Cu Cu 0.156274 0.960241 0.954094 0.92675
Cu Cu 0.459392 0.654454 0.955985 0.92675
Cu Cu 0.458601 0.952229 0.648844 0.92675
Cu Cu 0.432038 0.586127 0.935564 0.92675
Cu Cu 0.431057 0.92103 0.576881 0.92675
Cu Cu 0.0859096 0.931376 0.925234 0.92675
H H 0.142019 0.750437 0.883114 0.10418
H H 0.116406 0.812481 0.88277 0.10418
H H 0.189276 0.782665 0.999803 0.10418
H H 0.174992 0.847845 0.996493 0.10418
H H 0.118593 0.699366 0.922751 0.10418
H H 0.079827 0.662246 0.950309 0.10418
H H 0.394227 0.603138 0.744401 0.10418
H H 0.401807 0.586948 0.810752 0.10418
H H 0.476546 0.703899 0.77957 0.10418
H H 0.477528 0.692012 0.848027 0.10418
H H 0.455561 0.617688 0.700288 0.10418
H H 0.435619 0.565118 0.654679 0.10418
H H 0.246549 0.906371 0.615314 0.10418
H H 0.307381 0.905845 0.591089 0.10418
H H 0.291884 0.00594362 0.697365 0.10418
H H 0.356162 0.998235 0.676783 0.10418
H H 0.197428 0.967814 0.611545 0.10418
H H 0.152501 0.92182 0.57065 0.10418
H H 0.247263 0.640695 0.89955 0.10418
H H 0.310549 0.618874 0.893458 0.10418
H H 0.292761 0.704105 0.0124496 0.10418
H H 0.356173 0.688009 0.00408815 0.10418
H H 0.20288 0.626851 0.963865 0.10418
H H 0.157648 0.579644 0.93748 0.10418
H H 0.128551 0.899831 0.744477 0.10418
H H 0.104028 0.908552 0.802252 0.10418
H H 0.217945 0.993116 0.780588 0.10418
H H 0.2048 0.989653 0.847522 0.10418
H H 0.121952 0.942879 0.691641 0.10418
H H 0.0796383 0.966372 0.650532 0.10418
H H 0.392558 0.738135 0.612229 0.10418
H H 0.396583 0.805875 0.59857 0.10418
H H 0.478119 0.775099 0.711526 0.10418
H H 0.474121 0.843521 0.701337 0.10418
H H 0.429777 0.688461 0.610625 0.10418
H H 0.458666 0.651633 0.577798 0.10418
H H 0.237515 0.740536 0.957362 0.10418
H H 0.0458719 0.541774 0.948411 0.10418
H H 0.43082 0.727584 0.733159 0.10418
H H 0.435261 0.533259 0.532883 0.10418
H H 0.241824 0.951421 0.725939 0.10418
H H 0.0391019 0.940325 0.53539 0.10418
C C 0.145348 0.836127 0.938439 -0.02055
C C 0.150664 0.77343 0.907385 -0.08836
C C 0.13564 0.808474 0.906619 -0.08836
C C 0.172045 0.764992 0.940041 -0.02055
C C 0.177681 0.790877 0.973496 -0.08836
C C 0.165915 0.827411 0.971653 -0.08836
C C 0.13583 0.875794 0.935392 0.66798
C C 0.0175648 0.60937 0.946067 0.66798
C C 0.179263 0.725616 0.941853 -0.02055
C C 0.149219 0.696368 0.936857 -0.08836
C C 0.0582035 0.602692 0.948434 -0.02055
C C 0.0861591 0.632985 0.948801 -0.08836
C C 0.442642 0.639111 0.834343 -0.02055
C C 0.415401 0.622025 0.766975 -0.08836
C C 0.418836 0.61363 0.805148 -0.08836
C C 0.432644 0.657461 0.757673 -0.02055
C C 0.457743 0.680381 0.786478 -0.08836
C C 0.460561 0.672974 0.825193 -0.08836
C C 0.447036 0.6323 0.874471 0.66798
C C 0.437795 0.50471 0.600817 0.66798
C C 0.434132 0.668637 0.718472 -0.02055
C C 0.440818 0.639643 0.690237 -0.08836
C C 0.434054 0.545821 0.595304 -0.02055
C C 0.439198 0.573812 0.626506 -0.08836
C C 0.337334 0.949135 0.637127 -0.02055
C C 0.269762 0.925836 0.629153 -0.08836
C C 0.304371 0.923852 0.617708 -0.08836
C C 0.263603 0.957314 0.655335 -0.02055
C C 0.29718 0.981408 0.676997 -0.08836
C C 0.33301 0.978936 0.665462 -0.08836
C C 0.376426 0.942825 0.630298 0.66798
C C 0.105306 0.93007 0.509471 0.66798
C C 0.224657 0.958789 0.667545 -0.02055
C C 0.192692 0.956427 0.638583 -0.08836
C C 0.0960248 0.929491 0.548781 -0.02055
C C 0.126143 0.930144 0.579012 -0.08836
C C 0.337237 0.651838 0.949315 -0.02055
C C 0.271236 0.649318 0.924184 -0.08836
C C 0.307217 0.638191 0.920371 -0.08836
C C 0.264142 0.672381 0.95746 -0.02055
C C 0.295921 0.687378 0.986014 -0.08836
C C 0.331933 0.677856 0.980502 -0.08836
C C 0.375773 0.639928 0.945995 0.66798
C C 0.114173 0.520042 0.950909 0.66798
C C 0.224336 0.682153 0.959259 -0.02055
C C 0.19381 0.653699 0.960234 -0.08836
C C 0.105327 0.559355 0.953507 -0.02055
C C 0.13269 0.588069 0.947132 -0.08836
C C 0.152209 0.951111 0.831048 -0.02055
C C 0.14304 0.924089 0.764662 -0.08836
C C 0.131045 0.925086 0.800676 -0.08836
C C 0.173398 0.949529 0.755273 -0.02055
C C 0.197648 0.970481 0.786683 -0.08836
C C 0.185675 0.971912 0.824642 -0.08836
C C 0.139527 0.953187 0.870329 0.66798
C C 0.0117658 0.93829 0.605003 0.66798
C C 0.181585 0.945905 0.713161 -0.02055
C C 0.150742 0.944163 0.684275 -0.08836
C C 0.0538612 0.941919 0.596454 -0.02055
C C 0.0859839 0.951897 0.625088 -0.08836
C C 0.438266 0.829025 0.646578 -0.02055
C C 0.411822 0.760666 0.631713 -0.08836
C C 0.413964 0.79995 0.623527 -0.08836
C C 0.43838 0.751802 0.66169 -0.02055
C C 0.459824 0.782797 0.687862 -0.08836
C C 0.458585 0.819907 0.680701 -0.08836
C C 0.442057 0.867773 0.635159 0.66798
C C 0.456811 0.603339 0.513979 0.66798
C C 0.434705 0.71208 0.670656 -0.02055
C C 0.432334 0.681666 0.6415 -0.08836
C C 0.45041 0.594639 0.552878 -0.02055
C C 0.452844 0.621951 0.584114 -0.08836
C C 0.215208 0.718827 0.955502 -0.08836
C C 0.154978 0.659886 0.948063 -0.02055
C C 0.123562 0.626316 0.944148 -0.02055
C C 0.0683784 0.566332 0.950805 -0.08836
C C 0.430163 0.704992 0.707923 -0.08836
C C 0.436469 0.64354 0.650394 -0.02055
C C 0.444886 0.612488 0.621478 -0.02055
C C 0.438797 0.556439 0.558189 -0.08836
C C 0.218503 0.95129 0.704282 -0.08836
C C 0.15479 0.945169 0.646434 -0.02055
C C 0.121981 0.94413 0.616343 -0.02055
C C 0.0608694 0.94005 0.558483 -0.08836
O O 0.162599 0.903638 0.948337 -0.56768
O O 0.487019 0.577446 0.939479 -0.56768
O O 0.0104561 0.642219 0.960514 -0.56768
O O 0.101818 0.879352 0.92012 -0.56768
O O 0.454273 0.660138 0.900292 -0.56768
O O 0.436646 0.975155 0.565085 -0.56768
O O 0.447212 0.495955 0.635324 -0.56768
O O 0.437335 0.597241 0.88145 -0.56768
O O 0.404367 0.95852 0.655592 -0.56768
O O 0.0795399 0.931123 0.980256 -0.56768
O O 0.139277 0.943132 0.504081 -0.56768
O O 0.381583 0.928947 0.596363 -0.56768
O O 0.404056 0.665391 0.957332 -0.56768
O O 0.0770809 0.985347 0.936205 -0.56768
O O 0.148462 0.512892 0.962204 -0.56768
O O 0.380324 0.605879 0.932872 -0.56768
O O 0.164563 0.964456 0.899412 -0.56768
O O 0.488239 0.921628 0.568674 -0.56768
O O 0.00654749 0.942436 0.640404 -0.56768
O O 0.105191 0.940683 0.873508 -0.56768
O O 0.450642 0.898088 0.661837 -0.56768
O O 0.434192 0.582023 0.991014 -0.56768
O O 0.469704 0.63784 0.510419 -0.56768
O O 0.433027 0.871152 0.599037 -0.56768
Cu Cu 0.666826 0.452219 0.451687 0.92675
Cu Cu 0.940713 0.144892 0.444948 0.92675
Cu Cu 0.954205 0.450474 0.159149 0.92675
Cu Cu 0.912455 0.076536 0.41709 0.92675
Cu Cu 0.926225 0.426039 0.0873592 0.92675
Cu Cu 0.592429 0.426864 0.424657 0.92675
H H 0.61107 0.238919 0.400942 0.10418
H H 0.596962 0.30641 0.400364 0.10418
H H 0.700896 0.275906 0.496749 0.10418
H H 0.689174 0.341362 0.493938 0.10418
H H 0.615645 0.189357 0.468328 0.10418
H H 0.563171 0.150491 0.429379 0.10418
H H 0.847127 0.128527 0.241952 0.10418
H H 0.854455 0.108993 0.304605 0.10418
H H 0.960001 0.187861 0.261034 0.10418
H H 0.973738 0.162293 0.325775 0.10418
H H 0.898839 0.106438 0.179841 0.10418
H H 0.921133 0.0630701 0.147219 0.10418
H H 0.743643 0.415292 0.115182 0.10418
H H 0.806301 0.404817 0.101488 0.10418
H H 0.784606 0.500155 0.209964 0.10418
H H 0.850389 0.49142 0.20087 0.10418
H H 0.694003 0.470115 0.115347 0.10418
H H 0.651321 0.428079 0.0664232 0.10418
H H 0.731968 0.126659 0.368555 0.10418
H H 0.799839 0.112631 0.367166 0.10418
H H 0.768535 0.202517 0.474765 0.10418
H H 0.832205 0.184564 0.47676 0.10418
H H 0.676639 0.11037 0.407306 0.10418
H H 0.647507 0.0715482 0.444572 0.10418
H H 0.63525 0.376218 0.241361 0.10418
H H 0.629781 0.3726 0.310944 0.10418
H H 0.686876 0.494136 0.266138 0.10418
H H 0.678362 0.493964 0.333951 0.10418
H H 0.613514 0.424437 0.184876 0.10418
H H 0.578721 0.467861 0.147236 0.10418
H H 0.901068 0.237318 0.0976048 0.10418
H H 0.890237 0.309316 0.0989844 0.10418
H H 0.97346 0.272509 0.206354 0.10418
H H 0.975875 0.338685 0.197428 0.10418
H H 0.944123 0.187974 0.112933 0.10418
H H 0.916942 0.147125 0.0669102 0.10418
H H 0.718146 0.230829 0.425238 0.10418
H H 0.526916 0.0295906 0.435868 0.10418
H H 0.911116 0.227266 0.219861 0.10418
H H 0.931045 0.0334239 0.0256171 0.10418
H H 0.733528 0.448363 0.22969 0.10418
H H 0.534256 0.441952 0.0288641 0.10418
C C 0.644438 0.328389 0.445109 -0.02055
C C 0.627748 0.261905 0.421442 -0.08836
C C 0.621582 0.299737 0.418891 -0.08836
C C 0.654002 0.252181 0.449725 -0.02055
C C 0.679189 0.281838 0.473744 -0.08836
C C 0.67076 0.318737 0.472588 -0.08836
C C 0.635704 0.368284 0.444627 0.66798
C C 0.501039 0.101627 0.42898 0.66798
C C 0.665025 0.213944 0.446218 -0.02055
C C 0.63904 0.183424 0.451616 -0.08836
C C 0.540934 0.0917102 0.433673 -0.02055
C C 0.570566 0.1204 0.430883 -0.08836
C C 0.913191 0.136798 0.320205 -0.02055
C C 0.876085 0.132824 0.256026 -0.08836
C C 0.879681 0.124687 0.29491 -0.08836
C C 0.904583 0.159112 0.245496 -0.02055
C C 0.93891 0.170476 0.270986 -0.08836
C C 0.943463 0.160515 0.308915 -0.08836
C C 0.917126 0.126302 0.35983 0.66798
C C 0.93261 0.00215038 0.0969504 0.66798
C C 0.903694 0.164303 0.205228 -0.02055
C C 0.903272 0.134633 0.174931 -0.08836
C C 0.930528 0.0422897 0.0872616 -0.02055
C C 0.922311 0.0707255 0.117671 -0.08836
C C 0.833662 0.449104 0.150189 -0.02055
C C 0.76636 0.42662 0.137014 -0.08836
C C 0.802773 0.425675 0.126931 -0.08836
C C 0.75851 0.456844 0.162591 -0.02055
C C 0.790109 0.477949 0.188124 -0.08836
C C 0.827292 0.475574 0.180663 -0.08836
C C 0.872845 0.443355 0.143051 0.66798
C C 0.602936 0.438847 0.003003 0.66798
C C 0.718917 0.459112 0.171185 -0.02055
C C 0.688541 0.456903 0.140844 -0.08836
C C 0.594146 0.436335 0.0436 -0.02055
C C 0.62329 0.433039 0.0718233 -0.08836
C C 0.81843 0.143306 0.42496 -0.02055
C C 0.755093 0.140989 0.390343 -0.08836
C C 0.792054 0.130704 0.392314 -0.08836
C C 0.744624 0.163665 0.42175 -0.02055
C C 0.774526 0.182372 0.452457 -0.08836
C C 0.811804 0.17441 0.450904 -0.08836
C C 0.858117 0.131116 0.425717 0.66798
C C 0.60133 0.00853689 0.442461 0.66798
C C 0.70482 0.169958 0.420603 -0.02055
C C 0.677012 0.138972 0.421603 -0.08836
C C 0.588799 0.0475993 0.443149 -0.02055
C C 0.618652 0.0786652 0.444309 -0.08836
C C 0.649739 0.435739 0.327078 -0.02055
C C 0.644327 0.402521 0.262692 -0.08836
C C 0.642164 0.401352 0.301556 -0.08836
C C 0.661156 0.435678 0.250667 -0.02055
C C 0.669572 0.470062 0.276283 -0.08836
C C 0.66629 0.469431 0.314786 -0.08836
C C 0.641912 0.436072 0.366529 0.66798
C C 0.510465 0.450507 0.0998229 0.66798
C C 0.672526 0.43155 0.211025 -0.02055
C C 0.643317 0.430648 0.179858 -0.08836
C C 0.549868 0.447827 0.0901914 -0.02055
C C 0.58096 0.45223 0.11975 -0.08836
C C 0.937253 0.328424 0.145188 -0.02055
C C 0.916682 0.259821 0.119678 -0.08836
C C 0.9117 0.299679 0.118714 -0.08836
C C 0.934058 0.250688 0.154471 -0.02055
C C 0.95942 0.278467 0.179179 -0.08836
C C 0.961456 0.316482 0.173365 -0.08836
C C 0.938606 0.369593 0.139313 0.66798
C C 0.931684 0.101501 0.00391793 0.66798
C C 0.925462 0.210574 0.163611 -0.02055
C C 0.93217 0.180486 0.138591 -0.08836
C C 0.928318 0.0908273 0.0426542 -0.02055
C C 0.924254 0.118808 0.0726992 -0.08836
C C 0.697251 0.207139 0.428446 -0.08836
C C 0.642506 0.145576 0.436327 -0.02055
C C 0.610044 0.114834 0.435042 -0.02055
C C 0.549594 0.0547213 0.438386 -0.08836
C C 0.912249 0.203582 0.198187 -0.08836
C C 0.917742 0.142183 0.140867 -0.02055
C C 0.92013 0.110007 0.109719 -0.02055
C C 0.930761 0.0531366 0.0501249 -0.08836
C C 0.709936 0.449425 0.20774 -0.08836
C C 0.651284 0.443239 0.143823 -0.02055
C C 0.617659 0.441218 0.111135 -0.02055
C C 0.557672 0.439658 0.0525474 -0.08836
O O 0.664777 0.395232 0.454506 -0.56768
O O 0.969098 0.0693145 0.413614 -0.56768
O O 0.49642 0.136752 0.438978 -0.56768
O O 0.603533 0.374297 0.427684 -0.56768
O O 0.934204 0.150078 0.387053 -0.56768
O O 0.926318 0.4821 0.0872603 -0.56768
O O 0.94633 0.998526 0.132464 -0.56768
O O 0.908451 0.0913199 0.363355 -0.56768
O O 0.900127 0.450239 0.168878 -0.56768
O O 0.584018 0.426508 0.479384 -0.56768
O O 0.63775 0.44669 0.998208 -0.56768
O O 0.877216 0.424343 0.111019 -0.56768
O O 0.887053 0.155197 0.442829 -0.56768
O O 0.591057 0.483776 0.425679 -0.56768
O O 0.636077 0.00504913 0.453518 -0.56768
O O 0.860598 0.0952131 0.419084 -0.56768
O O 0.670282 0.443605 0.393315 -0.56768
O O 0.982661 0.429234 0.0800801 -0.56768
O O 0.50631 0.456945 0.135729 -0.56768
O O 0.608613 0.42398 0.372714 -0.56768
O O 0.948625 0.395611 0.168211 -0.56768
O O 0.91972 0.0704726 0.475092 -0.56768
O O 0.946946 0.135658 0.000611762 -0.56768
O O 0.936882 0.376299 0.104978 -0.56768
Cu Cu 0.65801 0.449511 0.949101 0.92675
Cu Cu 0.945286 0.157135 0.950506 0.92675
Cu Cu 0.951491 0.450353 0.659786 0.92675
Cu Cu 0.922218 0.0837912 0.919604 0.92675
Cu Cu 0.932992 0.427231 0.584245 0.92675
Cu Cu 0.584236 0.426433 0.918956 0.92675
H H 0.599726 0.234783 0.900226 0.10418
H H 0.586034 0.298898 0.901864 0.10418
H H 0.703801 0.275993 0.979822 0.10418
H H 0.68608 0.342024 0.98424 0.10418
H H 0.60772 0.187386 0.948996 0.10418
H H 0.560826 0.142049 0.913054 0.10418
H H 0.860948 0.156104 0.75196 0.10418
H H 0.865695 0.148104 0.821264 0.10418
H H 0.981653 0.148022 0.756575 0.10418
H H 0.985665 0.148765 0.82681 0.10418
H H 0.903948 0.11029 0.684153 0.10418
H H 0.937491 0.065666 0.647814 0.10418
H H 0.754291 0.36261 0.637096 0.10418
H H 0.819808 0.368142 0.620976 0.10418
H H 0.765368 0.484559 0.66918 0.10418
H H 0.833626 0.487601 0.662785 0.10418
H H 0.692707 0.413125 0.607002 0.10418
H H 0.659811 0.451099 0.570618 0.10418
H H 0.742968 0.143908 0.870848 0.10418
H H 0.806906 0.133226 0.867207 0.10418
H H 0.763297 0.171989 0.994755 0.10418
H H 0.831517 0.154227 0.991066 0.10418
H H 0.682344 0.106738 0.916392 0.10418
H H 0.648353 0.0713049 0.95197 0.10418
H H 0.618043 0.397478 0.732722 0.10418
H H 0.59823 0.394739 0.799154 0.10418
H H 0.707033 0.49211 0.775102 0.10418
H H 0.690701 0.489058 0.840114 0.10418
H H 0.628808 0.472296 0.688183 0.10418
H H 0.5766 0.436196 0.646213 0.10418
H H 0.884107 0.241768 0.623072 0.10418
H H 0.881305 0.306585 0.614443 0.10418
H H 0.992619 0.272161 0.695825 0.10418
H H 0.994777 0.338736 0.679684 0.10418
H H 0.949289 0.186112 0.612246 0.10418
H H 0.914655 0.145462 0.564728 0.10418
H H 0.722657 0.22691 0.941851 0.10418
H H 0.528466 0.0234107 0.926365 0.10418
H H 0.920497 0.224825 0.722984 0.10418
H H 0.927515 0.0280877 0.525267 0.10418
H H 0.73059 0.42365 0.724259 0.10418
H H 0.539465 0.444757 0.529484 0.10418
C C 0.636827 0.325246 0.93882 -0.02055
C C 0.619582 0.257399 0.919385 -0.08836
C C 0.611614 0.295674 0.919391 -0.08836
C C 0.651927 0.249769 0.942609 -0.02055
C C 0.678235 0.281151 0.962994 -0.08836
C C 0.668627 0.31808 0.963911 -0.08836
C C 0.631078 0.365331 0.934825 0.66798
C C 0.500467 0.0939539 0.919997 0.66798
C C 0.662857 0.21038 0.938875 -0.02055
C C 0.635742 0.178829 0.943133 -0.08836
C C 0.539504 0.0837425 0.922467 -0.02055
C C 0.570136 0.115582 0.924741 -0.08836
C C 0.927135 0.151812 0.828935 -0.02055
C C 0.887743 0.155707 0.767987 -0.08836
C C 0.890967 0.152383 0.807065 -0.08836
C C 0.920752 0.156588 0.749264 -0.02055
C C 0.957078 0.155588 0.771076 -0.08836
C C 0.959016 0.152556 0.810731 -0.08836
C C 0.93072 0.14095 0.868062 0.66798
C C 0.941901 0.00529253 0.598845 0.66798
C C 0.920717 0.166809 0.708772 -0.02055
C C 0.917223 0.136787 0.678596 -0.08836
C C 0.934001 0.0438167 0.588502 -0.02055
C C 0.932623 0.0727374 0.619848 -0.08836
C C 0.830495 0.428636 0.639421 -0.02055
C C 0.770387 0.389712 0.640062 -0.08836
C C 0.808028 0.392847 0.634437 -0.08836
C C 0.755379 0.422311 0.656439 -0.02055
C C 0.779418 0.457764 0.665543 -0.08836
C C 0.816065 0.461001 0.656598 -0.08836
C C 0.871359 0.432691 0.632666 0.66798
C C 0.610357 0.4414 0.506688 0.66798
C C 0.716349 0.4224 0.663727 -0.02055
C C 0.687138 0.424078 0.635274 -0.08836
C C 0.600393 0.439289 0.545314 -0.02055
C C 0.630049 0.444994 0.575117 -0.08836
C C 0.823459 0.138293 0.930542 -0.02055
C C 0.760232 0.143995 0.898224 -0.08836
C C 0.798054 0.137625 0.89619 -0.08836
C C 0.74882 0.158607 0.931903 -0.02055
C C 0.774087 0.162127 0.966176 -0.08836
C C 0.811781 0.151341 0.965279 -0.08836
C C 0.864864 0.134394 0.928971 0.66798
C C 0.599386 0.00637175 0.945065 0.66798
C C 0.708156 0.166452 0.931207 -0.02055
C C 0.676856 0.136173 0.924006 -0.08836
C C 0.588034 0.0445598 0.942657 -0.02055
C C 0.618098 0.077028 0.945443 -0.08836
C C 0.644004 0.440369 0.824285 -0.02055
C C 0.633701 0.41671 0.756167 -0.08836
C C 0.623003 0.415027 0.792583 -0.08836
C C 0.663275 0.445158 0.749568 -0.02055
C C 0.683765 0.472245 0.780188 -0.08836
C C 0.672453 0.471308 0.816057 -0.08836
C C 0.634614 0.440249 0.864184 0.66798
C C 0.513226 0.439483 0.598643 0.66798
C C 0.674917 0.44466 0.711506 -0.02055
C C 0.651097 0.4558 0.681446 -0.08836
C C 0.553007 0.439423 0.588601 -0.02055
C C 0.582989 0.439512 0.618957 -0.08836
C C 0.940098 0.326667 0.641825 -0.02055
C C 0.908656 0.262031 0.634223 -0.08836
C C 0.907565 0.299359 0.62743 -0.08836
C C 0.939712 0.251033 0.655364 -0.02055
C C 0.970715 0.277686 0.672849 -0.08836
C C 0.97056 0.316761 0.666042 -0.08836
C C 0.940961 0.365764 0.634874 0.66798
C C 0.92477 0.0985843 0.501912 0.66798
C C 0.93425 0.211789 0.665207 -0.02055
C C 0.934369 0.18032 0.635888 -0.08836
C C 0.923041 0.0876764 0.541525 -0.02055
C C 0.918322 0.116327 0.572153 -0.08836
C C 0.698811 0.203704 0.935397 -0.08836
C C 0.640612 0.142019 0.933564 -0.02055
C C 0.609415 0.111785 0.938127 -0.02055
C C 0.548645 0.0491588 0.933371 -0.08836
C C 0.928392 0.204306 0.702575 -0.08836
C C 0.923906 0.143194 0.642087 -0.02055
C C 0.921268 0.109462 0.610746 -0.02055
C C 0.927243 0.050479 0.548986 -0.08836
C C 0.708461 0.429505 0.702493 -0.08836
C C 0.653973 0.4396 0.64371 -0.02055
C C 0.622392 0.441422 0.612297 -0.02055
C C 0.561952 0.441478 0.553155 -0.08836
O O 0.65841 0.391851 0.946715 -0.56768
O O 0.979567 0.0790172 0.925505 -0.56768
O O 0.495649 0.127898 0.931256 -0.56768
O O 0.599341 0.371411 0.916413 -0.56768
O O 0.943905 0.167648 0.896323 -0.56768
O O 0.935142 0.483314 0.580168 -0.56768
O O 0.959789 0.00149745 0.63238 -0.56768
O O 0.924446 0.105305 0.871364 -0.56768
O O 0.896066 0.448651 0.660569 -0.56768
O O 0.577867 0.42414 0.974682 -0.56768
O O 0.644445 0.453721 0.5017 -0.56768
O O 0.880379 0.424272 0.598733 -0.56768
O O 0.889474 0.160438 0.949371 -0.56768
O O 0.579564 0.482679 0.924322 -0.56768
O O 0.635099 0.00443382 0.951713 -0.56768
O O 0.87149 0.100975 0.91903 -0.56768
O O 0.659982 0.451896 0.89124 -0.56768
O O 0.987714 0.430442 0.582146 -0.56768
O O 0.506695 0.450223 0.633019 -0.56768
O O 0.599287 0.428481 0.86859 -0.56768
O O 0.950794 0.393025 0.66352 -0.56768
O O 0.922154 0.0750245 0.974728 -0.56768
O O 0.941514 0.130932 0.497552 -0.56768
O O 0.93091 0.372914 0.601044 -0.56768
Cu Cu 0.660951 0.956861 0.451133 0.92675
Cu Cu 0.96552 0.660255 0.467288 0.92675
Cu Cu 0.951298 0.947953 0.15158 0.92675
Cu Cu 0.940805 0.587761 0.439073 0.92675
Cu Cu 0.926827 0.917777 0.079943 0.92675
Cu Cu 0.588678 0.925396 0.425439 0.92675
H H 0.633144 0.744894 0.38859 0.10418
H H 0.614508 0.809653 0.389216 0.10418
H H 0.704491 0.783313 0.491857 0.10418
H H 0.693036 0.846738 0.489339 0.10418
H H 0.623418 0.693367 0.432729 0.10418
H H 0.588005 0.65476 0.458544 0.10418
H H 0.901427 0.633526 0.25744 0.10418
H H 0.90545 0.612526 0.321484 0.10418
H H 0.012226 0.698699 0.288279 0.10418
H H 0.0111474 0.686711 0.355876 0.10418
H H 0.960547 0.614239 0.205175 0.10418
H H 0.919589 0.571374 0.155489 0.10418
H H 0.738437 0.892177 0.10134 0.10418
H H 0.803461 0.902936 0.0856496 0.10418
H H 0.774428 0.969568 0.204652 0.10418
H H 0.843923 0.970171 0.195429 0.10418
H H 0.685525 0.926984 0.107127 0.10418
H H 0.647059 0.963406 0.0734086 0.10418
H H 0.752567 0.622799 0.408176 0.10418
H H 0.819468 0.612284 0.398732 0.10418
H H 0.788712 0.694505 0.513996 0.10418
H H 0.857575 0.681319 0.50856 0.10418
H H 0.705916 0.621382 0.473153 0.10418
H H 0.664114 0.574588 0.427471 0.10418
H H 0.621484 0.89419 0.245424 0.10418
H H 0.606642 0.8974 0.312011 0.10418
H H 0.709196 0.991153 0.278815 0.10418
H H 0.688775 0.998269 0.344361 0.10418
H H 0.612619 0.953934 0.192149 0.10418
H H 0.564166 0.926958 0.149901 0.10418
H H 0.896915 0.767632 0.207205 0.10418
H H 0.903553 0.835152 0.194411 0.10418
H H 0.985783 0.750047 0.136055 0.10418
H H 0.978254 0.810646 0.109813 0.10418
H H 0.928208 0.689491 0.12196 0.10418
H H 0.96854 0.653813 0.091574 0.10418
H H 0.746603 0.734186 0.455809 0.10418
H H 0.547836 0.538424 0.437313 0.10418
H H 0.952364 0.73283 0.244802 0.10418
H H 0.955261 0.53768 0.0465056 0.10418
H H 0.726437 0.928989 0.22826 0.10418
H H 0.526526 0.927039 0.0313809 0.10418
C C 0.657316 0.835142 0.435027 -0.02055
C C 0.651021 0.767802 0.406276 -0.08836
C C 0.638526 0.804574 0.407797 -0.08836
C C 0.677276 0.759289 0.436155 -0.02055
C C 0.69243 0.789935 0.466221 -0.08836
C C 0.683254 0.825853 0.464845 -0.08836
C C 0.647812 0.874021 0.43116 0.66798
C C 0.52285 0.607381 0.444122 0.66798
C C 0.684707 0.719253 0.439266 -0.02055
C C 0.653929 0.689262 0.438496 -0.08836
C C 0.562265 0.59888 0.440755 -0.02055
C C 0.594079 0.627832 0.449787 -0.08836
C C 0.957109 0.651665 0.344981 -0.02055
C C 0.927113 0.641979 0.278623 -0.08836
C C 0.927688 0.633577 0.316518 -0.08836
C C 0.959263 0.663878 0.26795 -0.02055
C C 0.989489 0.680929 0.296862 -0.08836
C C 0.988685 0.673937 0.335006 -0.08836
C C 0.955388 0.641142 0.384413 0.66798
C C 0.93987 0.510276 0.113037 0.66798
C C 0.95821 0.671946 0.228668 -0.02055
C C 0.95307 0.641725 0.198225 -0.08836
C C 0.940278 0.549953 0.103234 -0.02055
C C 0.931495 0.579156 0.129755 -0.08836
C C 0.829492 0.932364 0.141258 -0.02055
C C 0.760756 0.909522 0.122664 -0.08836
C C 0.79885 0.910901 0.115538 -0.08836
C C 0.752044 0.927463 0.157845 -0.02055
C C 0.782406 0.951287 0.182003 -0.08836
C C 0.820081 0.953552 0.174202 -0.08836
C C 0.869469 0.928941 0.13472 0.66798
C C 0.597298 0.940049 0.00852223 0.66798
C C 0.711754 0.931129 0.166496 -0.02055
C C 0.68107 0.933736 0.137389 -0.08836
C C 0.58863 0.936683 0.047566 -0.02055
C C 0.618148 0.948856 0.0790997 -0.08836
C C 0.842825 0.645597 0.454958 -0.02055
C C 0.776736 0.638691 0.427132 -0.08836
C C 0.813517 0.632663 0.422922 -0.08836
C C 0.768862 0.666948 0.455998 -0.02055
C C 0.796264 0.678289 0.488504 -0.08836
C C 0.834033 0.670144 0.48542 -0.08836
C C 0.882587 0.635935 0.454066 0.66798
C C 0.616249 0.512048 0.440098 0.66798
C C 0.73006 0.675264 0.457253 -0.02055
C C 0.700009 0.646256 0.459909 -0.08836
C C 0.607945 0.551616 0.434976 -0.02055
C C 0.63644 0.581922 0.435186 -0.08836
C C 0.64293 0.95006 0.330109 -0.02055
C C 0.631732 0.917789 0.265936 -0.08836
C C 0.624272 0.920104 0.303109 -0.08836
C C 0.66175 0.942944 0.256219 -0.02055
C C 0.685386 0.970665 0.285378 -0.08836
C C 0.67528 0.974844 0.322613 -0.08836
C C 0.635678 0.946317 0.369701 0.66798
C C 0.502385 0.931854 0.0995298 0.66798
C C 0.669131 0.943535 0.21583 -0.02055
C C 0.640919 0.949065 0.186104 -0.08836
C C 0.542436 0.929922 0.092604 -0.02055
C C 0.572501 0.933434 0.123538 -0.08836
C C 0.938199 0.827001 0.148506 -0.02055
C C 0.915146 0.777887 0.18525 -0.08836
C C 0.916927 0.815168 0.176533 -0.08836
C C 0.942993 0.755353 0.174249 -0.02055
C C 0.965232 0.767266 0.146504 -0.08836
C C 0.960605 0.801105 0.130546 -0.08836
C C 0.939103 0.865836 0.137702 0.66798
C C 0.955431 0.605803 0.0217645 0.66798
C C 0.943457 0.716543 0.183841 -0.02055
C C 0.935247 0.685222 0.153659 -0.08836
C C 0.951658 0.597307 0.0603724 -0.02055
C C 0.952537 0.626812 0.0923228 -0.08836
C C 0.72261 0.712366 0.449786 -0.08836
C C 0.662667 0.651695 0.447128 -0.02055
C C 0.630946 0.620088 0.44598 -0.02055
C C 0.56939 0.560348 0.434542 -0.08836
C C 0.951692 0.710147 0.220978 -0.08836
C C 0.943256 0.647988 0.159933 -0.02055
C C 0.942614 0.61793 0.12797 -0.02055
C C 0.951414 0.559347 0.0688279 -0.08836
C C 0.702866 0.930174 0.204347 -0.08836
C C 0.645014 0.940897 0.147014 -0.02055
C C 0.611084 0.943735 0.117122 -0.02055
C C 0.549978 0.928401 0.0547647 -0.08836
O O 0.673358 0.902499 0.441947 -0.56768
O O 0.996314 0.582141 0.441736 -0.56768
O O 0.5165 0.642161 0.449372 -0.56768
O O 0.612482 0.877545 0.419716 -0.56768
O O 0.967294 0.668085 0.412694 -0.56768
O O 0.924398 0.974279 0.0706097 -0.56768
O O 0.954736 0.504203 0.145652 -0.56768
O O 0.945968 0.605579 0.388264 -0.56768
O O 0.897367 0.943455 0.16059 -0.56768
O O 0.590275 0.922498 0.4814 -0.56768
O O 0.631291 0.953321 0.00332374 -0.56768
O O 0.874389 0.921406 0.0991237 -0.56768
O O 0.909804 0.664635 0.461713 -0.56768
O O 0.574913 0.979722 0.434168 -0.56768
O O 0.651192 0.507157 0.448785 -0.56768
O O 0.889286 0.604316 0.438518 -0.56768
O O 0.662329 0.961142 0.395942 -0.56768
O O 0.982668 0.924668 0.0744391 -0.56768
O O 0.497851 0.944452 0.134014 -0.56768
O O 0.602166 0.932068 0.375065 -0.56768
O O 0.952534 0.894822 0.163439 -0.56768
O O 0.940205 0.582181 0.493863 -0.56768
O O 0.964793 0.641163 0.0164808 -0.56768
O O 0.930512 0.869426 0.10322 -0.56768
Cu Cu 0.651881 0.954536 0.954943 0.92675
Cu Cu 0.959618 0.659183 0.966541 0.92675
Cu Cu 0.957324 0.951811 0.656809 0.92675
Cu Cu 0.937544 0.589622 0.939443 0.92675
Cu Cu 0.93011 0.922672 0.58464 0.92675
Cu Cu 0.582545 0.922392 0.928041 0.92675
H H 0.704399 0.768961 0.910191 0.10418
H H 0.692644 0.836984 0.913318 0.10418
H H 0.617802 0.750639 0.987241 0.10418
H H 0.60119 0.814513 0.984428 0.10418
H H 0.620419 0.688112 0.93408 0.10418
H H 0.585072 0.650556 0.970241 0.10418
H H 0.892847 0.620011 0.754941 0.10418
H H 0.891749 0.60976 0.82232 0.10418
H H 0.990415 0.7105 0.787865 0.10418
H H 0.992735 0.690617 0.853842 0.10418
H H 0.953456 0.61593 0.70836 0.10418
H H 0.925792 0.565888 0.661076 0.10418
H H 0.771779 0.90366 0.705959 0.10418
H H 0.841854 0.902889 0.695778 0.10418
H H 0.757789 0.98374 0.625898 0.10418
H H 0.820324 0.978817 0.608515 0.10418
H H 0.696642 0.935308 0.61592 0.10418
H H 0.660043 0.969205 0.578832 0.10418
H H 0.749114 0.628444 0.91092 0.10418
H H 0.813221 0.606836 0.908302 0.10418
H H 0.788429 0.704397 0.0100027 0.10418
H H 0.85727 0.692282 0.00601506 0.10418
H H 0.700269 0.613245 0.962972 0.10418
H H 0.656189 0.567761 0.927143 0.10418
H H 0.630676 0.893634 0.742918 0.10418
H H 0.613355 0.886539 0.805154 0.10418
H H 0.685547 0.0104298 0.780536 0.10418
H H 0.668945 0.00282355 0.846747 0.10418
H H 0.619908 0.961639 0.69531 0.10418
H H 0.574795 0.926375 0.647266 0.10418
H H 0.890667 0.772011 0.702226 0.10418
H H 0.896224 0.836839 0.687831 0.10418
H H 0.978441 0.742877 0.638176 0.10418
H H 0.98939 0.811664 0.622315 0.10418
H H 0.913344 0.68197 0.619304 0.10418
H H 0.960064 0.656962 0.592842 0.10418
H H 0.73748 0.734298 0.963284 0.10418
H H 0.541293 0.53485 0.9468 0.10418
H H 0.933505 0.732545 0.737279 0.10418
H H 0.93206 0.536997 0.54219 0.10418
H H 0.732975 0.953125 0.736137 0.10418
H H 0.545353 0.933047 0.528831 0.10418
C C 0.64409 0.830333 0.947209 -0.02055
C C 0.685558 0.781094 0.929852 -0.08836
C C 0.673291 0.81725 0.925975 -0.08836
C C 0.668169 0.756915 0.954698 -0.02055
C C 0.635007 0.76878 0.971587 -0.08836
C C 0.624712 0.805689 0.96843 -0.08836
C C 0.634881 0.870293 0.946636 0.66798
C C 0.515704 0.605013 0.94633 0.66798
C C 0.67624 0.717667 0.954601 -0.02055
C C 0.647058 0.686487 0.947732 -0.08836
C C 0.556448 0.595174 0.948254 -0.02055
C C 0.587338 0.624076 0.955073 -0.08836
C C 0.940816 0.651487 0.84264 -0.02055
C C 0.914018 0.636642 0.776171 -0.08836
C C 0.913646 0.630633 0.814049 -0.08836
C C 0.940353 0.666446 0.767228 -0.02055
C C 0.96826 0.689284 0.795437 -0.08836
C C 0.970134 0.678168 0.833308 -0.08836
C C 0.943696 0.642027 0.882284 0.66798
C C 0.934053 0.507991 0.609366 0.66798
C C 0.938305 0.67205 0.728033 -0.02055
C C 0.941466 0.640869 0.699475 -0.08836
C C 0.93288 0.547572 0.603252 -0.02055
C C 0.930117 0.576163 0.632706 -0.08836
C C 0.833959 0.935716 0.646539 -0.02055
C C 0.783379 0.919391 0.68391 -0.08836
C C 0.821554 0.918009 0.677328 -0.08836
C C 0.758691 0.942063 0.665664 -0.02055
C C 0.77326 0.962625 0.637628 -0.08836
C C 0.809862 0.958276 0.627239 -0.08836
C C 0.873446 0.934557 0.637041 0.66798
C C 0.614205 0.941946 0.508539 0.66798
C C 0.719532 0.942302 0.675278 -0.02055
C C 0.689295 0.939557 0.644074 -0.08836
C C 0.60395 0.941809 0.548348 -0.02055
C C 0.631368 0.954934 0.582353 -0.08836
C C 0.838843 0.646159 0.959258 -0.02055
C C 0.771903 0.638064 0.934244 -0.08836
C C 0.80782 0.627895 0.933332 -0.08836
C C 0.763698 0.664538 0.961687 -0.02055
C C 0.794257 0.680769 0.990256 -0.08836
C C 0.832216 0.674961 0.987608 -0.08836
C C 0.877763 0.637344 0.957468 0.66798
C C 0.606596 0.508839 0.939225 0.66798
C C 0.723653 0.672938 0.964331 -0.02055
C C 0.693972 0.642295 0.962208 -0.08836
C C 0.599489 0.548465 0.938955 -0.02055
C C 0.629414 0.5772 0.93615 -0.08836
C C 0.643968 0.944776 0.832899 -0.02055
C C 0.641216 0.917321 0.766332 -0.08836
C C 0.632691 0.912415 0.804349 -0.08836
C C 0.662473 0.951579 0.757837 -0.02055
C C 0.670548 0.982152 0.787485 -0.08836
C C 0.660834 0.979586 0.823224 -0.08836
C C 0.636418 0.94244 0.872833 0.66798
C C 0.515185 0.929908 0.597114 0.66798
C C 0.674184 0.953116 0.719913 -0.02055
C C 0.646179 0.955954 0.687753 -0.08836
C C 0.555981 0.931234 0.590013 -0.02055
C C 0.583484 0.934147 0.621645 -0.08836
C C 0.940968 0.828175 0.648427 -0.02055
C C 0.908805 0.780374 0.682562 -0.08836
C C 0.912504 0.815833 0.672411 -0.08836
C C 0.929459 0.752357 0.666463 -0.02055
C C 0.958287 0.762974 0.643639 -0.08836
C C 0.964931 0.800896 0.635903 -0.08836
C C 0.944703 0.867244 0.637574 0.66798
C C 0.948188 0.609469 0.523642 0.66798
C C 0.924858 0.712548 0.67828 -0.02055
C C 0.923612 0.680791 0.649686 -0.08836
C C 0.948381 0.598229 0.562428 -0.02055
C C 0.951526 0.626116 0.594936 -0.08836
C C 0.714734 0.710399 0.960172 -0.08836
C C 0.655085 0.648799 0.950316 -0.02055
C C 0.623908 0.616247 0.945684 -0.02055
C C 0.563232 0.557802 0.94401 -0.08836
C C 0.928041 0.705918 0.717237 -0.08836
C C 0.934739 0.645647 0.660502 -0.02055
C C 0.939234 0.614303 0.629749 -0.02055
C C 0.940385 0.559594 0.567216 -0.08836
C C 0.712063 0.951815 0.712708 -0.08836
C C 0.6533 0.948185 0.649698 -0.02055
C C 0.621326 0.947822 0.618438 -0.02055
C C 0.56599 0.933741 0.55381 -0.08836
O O 0.659675 0.900575 0.953493 -0.56768
O O 0.991159 0.580581 0.938302 -0.56768
O O 0.511612 0.639445 0.952921 -0.56768
O O 0.600588 0.873789 0.934179 -0.56768
O O 0.952479 0.667779 0.911065 -0.56768
O O 0.930064 0.97707 0.573275 -0.56768
O O 0.947708 0.500545 0.642765 -0.56768
O O 0.937231 0.606681 0.885717 -0.56768
O O 0.901749 0.9532 0.661546 -0.56768
O O 0.572346 0.923759 0.980101 -0.56768
O O 0.647818 0.953137 0.503606 -0.56768
O O 0.876483 0.92366 0.601984 -0.56768
O O 0.904125 0.664928 0.969656 -0.56768
O O 0.574501 0.977262 0.93362 -0.56768
O O 0.641433 0.50099 0.947123 -0.56768
O O 0.885017 0.604318 0.941815 -0.56768
O O 0.663227 0.954171 0.901201 -0.56768
O O 0.984073 0.926331 0.578766 -0.56768
O O 0.508692 0.94175 0.632237 -0.56768
O O 0.603609 0.927384 0.877515 -0.56768
O O 0.948739 0.895567 0.66509 -0.56768
O O 0.94038 0.580825 0.994353 -0.56768
O O 0.961825 0.643643 0.51934 -0.56768
O O 0.931374 0.870588 0.602958 -0.56768
