_cell_length_a                         34.0352977651
_cell_length_b                         34.1846644629
_cell_length_c                         33.8966032059
_cell_angle_alpha 90.0
_cell_angle_beta 90.0
_cell_angle_gamma 90.0
_symmetry_space_group_name_H-M         'P 1'
_symmetry_Int_Tables_number            1
loop_
_symmetry_equiv_pos_as_xyz
   'x, y, z'

loop_
_atom_site_label
_atom_site_fract_x 
_atom_site_fract_y
_atom_site_fract_z
_atom_site_charge
C	0.18739085544	0.039967775926	0.31982479076	0.41839999
C	0.31923652236	0.522383030952	0.309116070238	0.41839999
C	0.302460422909	0.027841678468	0.191423633443	0.41839999
C	0.195578021124	0.528341743913	0.207017194045	0.41839999
C	0.315908336993	0.213893865567	0.0116370885289	0.41839999
C	0.334263470734	0.352718541972	0.497989348877	0.41839999
C	0.187285811607	0.355122090335	0.0139261216205	0.41839999
C	0.196939294791	0.229653297844	0.496571360102	0.41839999
C	0.0136856314034	0.340316277568	0.187556937955	0.41839999
C	0.511452977327	0.335641212208	0.317676888914	0.41839999
C	0.0065503569085	0.217095126818	0.302380905443	0.41839999
C	0.49164624482	0.221079502238	0.189359316902	0.41839999
C	0.439579998916	0.283504088015	0.0703539282038	0.41839999
C	0.0612407152361	0.277732469818	0.0558542110775	0.41839999
C	0.0620009695642	0.285818638744	0.438199747283	0.41839999
C	0.449002884941	0.266957305981	0.439258504721	0.41839999
C	0.0628024062359	0.467553086286	0.263859212818	0.41839999
C	0.0576580594646	0.0851691868226	0.245518500482	0.41839999
C	0.430205810505	0.0879842625016	0.251623641835	0.41839999
C	0.457637697582	0.470517901039	0.254289091449	0.41839999
C	0.264345853537	0.0999330762708	0.447076037275	0.41839999
C	0.231394567588	0.0953079430816	0.0693587728093	0.41839999
C	0.260667438704	0.470574657292	0.0800475550725	0.41839999
C	0.259001910194	0.471761593414	0.44559505143	0.41839999
C	0.19061737456	0.472682368995	0.344545434808	-0.191
C	0.315371365799	0.0830724916613	0.339444256857	-0.191
C	0.333810476121	0.493225657064	0.154724305855	-0.191
C	0.186487549176	0.0763653337817	0.167871584316	-0.191
C	0.349493059112	0.223224738993	0.458830119533	-0.191
C	0.345167928056	0.337053164721	0.065985593056	-0.191
C	0.153570789495	0.365296964949	0.46206682065	-0.191
C	0.155648234628	0.216218676845	0.0399995106202	-0.191
C	0.461427777363	0.383093421555	0.196875432189	-0.191
C	0.0578648777128	0.368128428394	0.31557989067	-0.191
C	0.454003077942	0.179237693597	0.314599228778	-0.191
C	0.0382323823393	0.171333264611	0.171353791784	-0.191
C	0.459775541815	0.20491188398	0.345564883605	-0.191
C	0.0534540778282	0.3448965754	0.346813370059	-0.191
C	0.456126006144	0.358312676898	0.166209511508	-0.191
C	0.0409979575235	0.201424090398	0.144858814724	-0.191
C	0.185525386055	0.389303277941	0.459948493231	-0.191
C	0.31886524912	0.366796201464	0.0687417144762	-0.191
C	0.321863302504	0.195471829607	0.455439242396	-0.191
C	0.184328997971	0.19126694821	0.0482201502483	-0.191
C	0.367868285265	0.498491740151	0.175130868192	-0.191
C	0.342500562963	0.0785897446953	0.311609859663	-0.191
C	0.159433075226	0.476323026686	0.321815056574	-0.191
C	0.156742307502	0.0733738323253	0.194359234614	-0.191
C	0.434873309032	0.231374477119	0.103439969646	-0.191
C	0.068599875916	0.33070039468	0.0922167527358	-0.191
C	0.0692878015863	0.22905241356	0.407989725868	-0.191
C	0.444731067087	0.317768839986	0.401992812582	-0.191
C	0.0983717384148	0.467166527657	0.209922090742	-0.191
C	0.0926814124564	0.0945915809129	0.299744523272	-0.191
C	0.393357591827	0.091932601679	0.200047679367	-0.191
C	0.414412142585	0.461901324389	0.299675320856	-0.191
C	0.212331797658	0.135419054671	0.43747709631	-0.191
C	0.289978443147	0.120589499026	0.0723942545187	-0.191
C	0.20359074034	0.446456408345	0.0800066462449	-0.191
C	0.311823862577	0.439324106402	0.437191213086	-0.191
C	0.205184089012	0.473054535759	0.108067358988	-0.191
C	0.288267517226	0.088815498796	0.0959144992515	-0.191
C	0.216448349056	0.113064438652	0.405112790049	-0.191
C	0.308605605488	0.465658331611	0.40824123199	-0.191
C	0.421569254765	0.12015705514	0.197360627368	-0.191
C	0.0639892928577	0.119781209294	0.29856841065	-0.191
C	0.076688266269	0.432968489496	0.210054878194	-0.191
C	0.44165466842	0.431729444911	0.302248079441	-0.191
C	0.0981368138308	0.233220626226	0.43385947792	-0.191
C	0.0949349255023	0.332101556309	0.0613541481336	-0.191
C	0.40872622115	0.229318531346	0.0729574830156	-0.191
C	0.421509919445	0.324365389192	0.433935406382	-0.191
C	0.197162686544	0.0817045723963	0.309148900206	-0.57260001
C	0.310984536999	0.480250253491	0.298200397556	-0.57260001
C	0.284787089057	0.0608823386845	0.213476326807	-0.57260001
C	0.211911113292	0.491863223381	0.223484860441	-0.57260001
C	0.304803425437	0.22198593697	0.0527679834081	-0.57260001
C	0.316828633197	0.336770323935	0.461589769815	-0.57260001
C	0.193684968829	0.33753049517	0.0555131648467	-0.57260001
C	0.220232273623	0.247817967632	0.462177906159	-0.57260001
C	0.0493709297629	0.325082702742	0.205862844251	-0.57260001
C	0.475599227761	0.323471143374	0.295471750636	-0.57260001
C	0.0474328111986	0.225002786001	0.292614163834	-0.57260001
C	0.451719709487	0.233899876842	0.199906668172	-0.57260001
C	0.452235117297	0.323975530898	0.0583120353322	-0.57260001
C	0.0443260629337	0.240287942363	0.0390849708067	-0.57260001
C	0.0460943084144	0.32260552398	0.457206575194	-0.57260001
C	0.457603156767	0.225747303014	0.45326431743	-0.57260001
C	0.050920499556	0.477223487011	0.304802112193	-0.57260001
C	0.0446546941628	0.0678540343218	0.208786813494	-0.57260001
C	0.446923035407	0.0752083898345	0.291389492062	-0.57260001
C	0.47674030535	0.48507554397	0.218673159555	-0.57260001
C	0.299989778945	0.0809167663058	0.464386096685	-0.57260001
C	0.18972786251	0.0881197440037	0.0574294631264	-0.57260001
C	0.29738798523	0.484663759785	0.0642862045314	-0.57260001
C	0.220414330418	0.487395106191	0.463814277906	-0.57260001
H	0.196595246972	0.451822269599	0.359806383612	0.1536
H	0.313547676603	0.105308673116	0.354452976944	0.1536
H	0.332579333946	0.47552183722	0.134857074647	0.1536
H	0.192172514954	0.0973432671606	0.152634178109	0.1536
H	0.370538941799	0.226345157439	0.439336445758	0.1536
H	0.365939308599	0.332800568054	0.0850370739856	0.1536
H	0.130403354997	0.368223905744	0.448271009271	0.1536
H	0.133026895972	0.219144067007	0.0591840439718	0.1536
H	0.440348991514	0.401112112892	0.205266271554	0.1536
H	0.0789706725458	0.388056783897	0.311480228953	0.1536
H	0.430481513693	0.169735989658	0.306560473965	0.1536
H	0.0554956531832	0.149421864641	0.170681535193	0.1536
H	0.441031567477	0.216452521008	0.363626866447	0.1536
H	0.0701779006735	0.340892470968	0.367616275307	0.1536
H	0.434764898868	0.353694237161	0.152759137151	0.1536
H	0.0581289857795	0.204808669845	0.125415110414	0.1536
H	0.189443322892	0.409985072987	0.44407749154	0.1536
H	0.315683192657	0.382242019442	0.0907879781167	0.1536
H	0.317075186865	0.179094035702	0.434451068628	0.1536
H	0.188519639621	0.177871867069	0.0724251247907	0.1536
H	0.389119657185	0.482895229443	0.174566728374	0.1536
H	0.360545682103	0.0977302626157	0.303014603882	0.1536
H	0.145569897487	0.454858200952	0.314575628035	0.1536
H	0.138774500284	0.0925529719943	0.202530159784	0.1536
H	0.43829137387	0.210785229198	0.119495095308	0.1536
H	0.0606929563461	0.34983859833	0.110113946077	0.1536
H	0.0624789450606	0.20629509921	0.39262498661	0.1536
H	0.448148362778	0.336098418772	0.381916576479	0.1536
H	0.116382550969	0.473770699505	0.189648244073	0.1536
H	0.114171151117	0.0911408956304	0.318796690124	0.1536
H	0.376547457113	0.0825222311338	0.180015004247	0.1536
H	0.393965050153	0.465047788893	0.315964207024	0.1536
H	0.191961091984	0.153973501573	0.440641986832	0.1536
H	0.311592653945	0.135629334559	0.0675178340009	0.1536
H	0.182422654962	0.429510002466	0.0750383400643	0.1536
H	0.330684486937	0.422691850248	0.438342912604	0.1536
H	0.182275615053	0.481401664672	0.120555677703	0.1536
H	0.31047286574	0.0796570786165	0.110059513506	0.1536
H	0.196274877788	0.109505877832	0.387504791142	0.1536
H	0.328375305042	0.46707702657	0.386779332458	0.1536
H	0.425252684546	0.134709996271	0.176601361551	0.1536
H	0.059065138125	0.137349264405	0.317934229371	0.1536
H	0.0753558056599	0.414565524005	0.190518451186	0.1536
H	0.439576026024	0.41007310972	0.320911839503	0.1536
H	0.116877757479	0.211376490054	0.438895552264	0.1536
H	0.110495320811	0.353354653221	0.0561796688303	0.1536
H	0.395184039961	0.20555587349	0.0649766004296	0.1536
H	0.406206159974	0.345188674667	0.439697350654	0.1536
H	0.223744504985	0.0883338706111	0.316961898315	0.1481
H	0.334247371682	0.465160877487	0.295627215951	0.1481
H	0.333969289458	0.320987380451	0.446627668603	0.1481
H	0.246348457227	0.254468063904	0.471569982401	0.1481
H	0.454701775229	0.340833423155	0.299148350353	0.1481
H	0.0497718333981	0.251427514642	0.283938320224	0.1481
H	0.0683005007854	0.316481669795	0.186559903589	0.1481
H	0.454901242604	0.246254004041	0.225301034762	0.1481
H	0.221665503253	0.338255401713	0.062883812162	0.1481
H	0.279071101293	0.213646066772	0.0563952028639	0.1481
H	0.304390461648	0.0766271024101	0.224157202353	0.1481
H	0.233502433488	0.484907385593	0.206206251483	0.1481
H	0.0570124274913	0.234227662092	0.0145349829026	0.1481
H	0.0190754909782	0.324746582886	0.454776300586	0.1481
H	0.0669889053144	0.0637615418891	0.190766070846	0.1481
H	0.445188384994	0.096578846032	0.308606389735	0.1481
H	0.316953812285	0.0771001082351	0.44391327075	0.1481
H	0.186163542772	0.0580049516378	0.0551195455992	0.1481
H	0.294634401201	0.485992334952	0.0362436592223	0.1481
H	0.19905832632	0.48771434422	0.444036136169	0.1481
H	0.0240780616524	0.488853264399	0.303271158905	0.1481
H	0.493798879291	0.465185930394	0.206486255418	0.1481
H	0.452978572985	0.340502595534	0.0813976701058	0.1481
H	0.464242840096	0.210334618851	0.430122560191	0.1481
H	0.177181109744	0.101341523698	0.313008700181	0.1481
H	0.297579265942	0.478027507772	0.273661505087	0.1481
H	0.306551025569	0.358142566598	0.445452062414	0.1481
H	0.209430059562	0.27245799056	0.453278946596	0.1481
H	0.467461929972	0.299075514972	0.301004550106	0.1481
H	0.0669166142897	0.21656385097	0.312882272728	0.1481
H	0.0624061058059	0.344693195746	0.224596161767	0.1481
H	0.442710700326	0.252229364666	0.182291439379	0.1481
H	0.178769389391	0.354203961781	0.0740288111992	0.1481
H	0.320894004816	0.2084420486	0.0729770383898	0.1481
H	0.268213579922	0.0766482928103	0.194419225948	0.1481
H	0.220097177159	0.495332584998	0.251101867035	0.1481
H	0.0164604993766	0.243107322596	0.0332088414709	0.1481
H	0.0567828211559	0.346125177017	0.444396151757	0.1481
H	0.0275980566757	0.0839713500885	0.194908335094	0.1481
H	0.470744216841	0.0635271837268	0.285300574062	0.1481
H	0.290235961981	0.0566537087673	0.475861177551	0.1481
H	0.182704222271	0.100895839923	0.033704516982	0.1481
H	0.319115459643	0.467237438962	0.0698655844369	0.1481
H	0.214721239823	0.468130406576	0.483801740651	0.1481
H	0.046961087811	0.45386542459	0.317437226866	0.1481
H	0.458171588143	0.495760481839	0.200601245041	0.1481
H	0.476787860344	0.321400247064	0.0442371666066	0.1481
H	0.483174730243	0.228828785565	0.46617911499	0.1481
H	0.198306587832	0.0786358839248	0.282920126753	0.1481
H	0.295168183286	0.467263998919	0.317535916521	0.1481
H	0.294685048132	0.318611314847	0.467500988028	0.1481
H	0.224007225939	0.228949020433	0.4433310663	0.1481
H	0.480047521656	0.32332429701	0.268513869395	0.1481
H	0.0516157436755	0.208538860892	0.270515581742	0.1481
H	0.0405635287971	0.303945807518	0.218732967159	0.1481
H	0.434334035061	0.210911096061	0.202915891636	0.1481
H	0.182702832514	0.311837023594	0.0538052738058	0.1481
H	0.308555684437	0.248455768306	0.0600126767991	0.1481
H	0.270702893157	0.0513778821061	0.236312421054	0.1481
H	0.190377586168	0.471965080157	0.223159985215	0.1481
H	0.0485577564593	0.217187542468	0.0558538311493	0.1481
H	0.0544561633429	0.323304622668	0.483784879727	0.1481
H	0.0349162015297	0.043293569749	0.218331647354	0.1481
H	0.432076371209	0.0544919869963	0.303074592664	0.1481
H	0.311967799607	0.0963813994609	0.483951894386	0.1481
H	0.173131274126	0.0966630043556	0.0790819981914	0.1481
H	0.304819891136	0.507724307683	0.076039733372	0.1481
H	0.227348566546	0.514825837055	0.476262062591	0.1481
H	0.0697076103566	0.491872360238	0.31684805207	0.1481
H	0.495022152136	0.50738808824	0.226068284935	0.1481
H	0.433063751936	0.332582117807	0.0383717474048	0.1481
H	0.438543027475	0.215802927566	0.470841376799	0.1481
N	0.207004118526	0.510812690481	0.347580355756	-0.28
N	0.295124073088	0.0482858287673	0.345496177147	-0.28
N	0.306749663648	0.521592808062	0.16829494241	-0.28
N	0.206031671463	0.0409754693479	0.16651545365	-0.28
N	0.344701215565	0.245887246116	0.491106092794	-0.28
N	0.341465542602	0.321814226757	0.0284176408882	-0.28
N	0.164058798673	0.332371218835	0.484919601552	-0.28
N	0.164268888951	0.241028118383	0.0101185601177	-0.28
N	0.498902114486	0.378673587121	0.211833451358	-0.28
N	0.0256314759689	0.36485344599	0.291220258033	-0.28
N	0.486941176963	0.174504006817	0.294848924774	-0.28
N	0.00924199424478	0.179777871883	0.197574582424	-0.28
N	0.496380526076	0.21785463666	0.342557043086	-0.28
N	0.0203688526598	0.321621349435	0.34029406695	-0.28
N	0.489524888302	0.333702799022	0.165827170328	-0.28
N	0.0117988462081	0.229401284242	0.152845861661	-0.28
N	0.214155256938	0.375053951045	0.482415679586	-0.28
N	0.292922080403	0.363481967972	0.0379340563229	-0.28
N	0.299995761749	0.198641792787	0.489056075192	-0.28
N	0.211548023693	0.195293398509	0.0198834590709	-0.28
N	0.362665830266	0.530373414692	0.201558576151	-0.28
N	0.339166452622	0.0418792620029	0.296311286204	-0.28
N	0.157193769358	0.514713300761	0.309987436467	-0.28
N	0.160698348322	0.0394639824287	0.213497068984	-0.28
N	0.457317551185	0.263062904956	0.100530991405	-0.28
N	0.0472982449127	0.295489880299	0.0908841457201	-0.28
N	0.0447383455595	0.261190589255	0.4123094246	-0.28
N	0.464612407716	0.284582959673	0.407059267738	-0.28
N	0.0919637058698	0.48753056951	0.244069845579	-0.28
N	0.0874789925997	0.0700905049529	0.267306300279	-0.28
N	0.395822068831	0.0735793830515	0.235752346344	-0.28
N	0.424932930212	0.48644628971	0.269249943154	-0.28
N	0.24439755491	0.130303982664	0.462787533872	-0.28
N	0.255847285822	0.124143940909	0.0535828616402	-0.28
N	0.238116280612	0.44540317346	0.0609917057607	-0.28
N	0.280006630977	0.441842079974	0.460700060391	-0.28
N	0.241749293292	0.488902738956	0.108061764438	-0.28
N	0.252039076469	0.0717787456761	0.0937749340125	-0.28
N	0.247485209752	0.0880879698098	0.41463443754	-0.28
N	0.273219458754	0.483973019278	0.412455405142	-0.28
N	0.446582177957	0.116504917566	0.230629058184	-0.28
N	0.0420730692957	0.117034448271	0.262624460885	-0.28
N	0.0553087362465	0.433781690033	0.243166647208	-0.28
N	0.47113576163	0.439473239969	0.275250002896	-0.28
N	0.0948852963329	0.269004219804	0.454474803602	-0.28
N	0.0882853006043	0.299593678453	0.0370341196356	-0.28
N	0.41313961163	0.263826199874	0.0520147471933	-0.28
N	0.422715028879	0.291016139843	0.456874370014	-0.28
Zn	0.256800880271	0.527220785903	0.375236971892	0.68940001
Zn	0.242054666835	0.0257410556616	0.126433735499	0.68940001
Zn	0.373735978351	0.276923532019	0.0124232613285	0.68940001
Zn	0.131918967512	0.288408932819	0.498333148343	0.68940001
Zn	0.517340734155	0.403375895159	0.261576613924	0.68940001
Zn	0.99689680478	0.149277209797	0.247789356804	0.68940001
Zn	1.00523130675	0.274608061496	0.370096723164	0.68940001
Zn	1.0014326447	0.27865393721	0.122553651074	0.68940001
Zn	0.254792733029	0.409927394919	0.0165059800622	0.68940001
Zn	0.255674322723	0.163854970004	0.506921178916	0.68940001
Zn	0.367903245784	0.0219835445767	0.248384416603	0.68940001
Zn	0.123290816205	0.0236787634424	0.255841439571	0.68940001
C	0.179751568277	0.02971301275	0.817515261192	0.41839999
C	0.321709315074	0.520713331609	0.816365625268	0.41839999
C	0.319230381628	0.0374565169041	0.692400799966	0.41839999
C	0.19462344436	0.513866881992	0.697755664913	0.41839999
C	0.316112724783	0.227696971522	0.513557339884	0.41839999
C	0.308631515128	0.338229170613	0.0131146852055	0.41839999
C	0.199178817071	0.342597589022	0.500165979211	0.41839999
C	0.208968426025	0.220956504289	0.99681847302	0.41839999
C	1.01011698019	0.336170495649	0.681656850063	0.41839999
C	0.501359933805	0.337281601339	0.829860185688	0.41839999
C	1.00441191546	0.218239714744	0.80552183706	0.41839999
C	0.507037334865	0.211566498629	0.694743255131	0.41839999
C	0.455994740564	0.28114460468	0.567570035783	0.41839999
C	0.0652382540235	0.275623100611	0.558332334088	0.41839999
C	0.0729622617454	0.285424334559	0.936732401366	0.41839999
C	0.441158201037	0.268814224454	0.948010922547	0.41839999
C	0.0665765487357	0.460980768329	0.759100583251	0.41839999
C	0.0624083633985	0.0884843526916	0.748199528447	0.41839999
C	0.444219030939	0.0905170073267	0.765650982989	0.41839999
C	0.450874344889	0.460247222993	0.752845055922	0.41839999
C	0.252318827025	0.0814950306335	0.94914600465	0.41839999
C	0.246664715709	0.0932333023159	0.563872720355	0.41839999
C	0.261307016262	0.469190324805	0.563862938355	0.41839999
C	0.2641326666	0.470615674337	0.955556369936	0.41839999
C	0.204328022861	0.472805103177	0.857938395504	-0.191
C	0.321124564303	0.0667336658993	0.863852941865	-0.191
C	0.325720676491	0.475341299124	0.654378736612	-0.191
C	0.18515042213	0.0730845513744	0.660674096822	-0.191
C	0.354269773137	0.211762185225	0.954044348898	-0.191
C	0.35969463095	0.354631444412	0.554481839271	-0.191
C	0.181968122095	0.348777530994	0.95316186414	-0.191
C	0.152325902139	0.2163035972	0.538197183469	-0.191
C	0.465819973062	0.370553090394	0.690804886945	-0.191
C	0.0512142717726	0.371358004277	0.814875019147	-0.191
C	0.452803586959	0.19340637859	0.811522380992	-0.191
C	0.0474523951658	0.191285501904	0.689247709747	-0.191
C	0.452728665088	0.218394474269	0.844164489826	-0.191
C	0.0577705599947	0.339407294159	0.837494864505	-0.191
C	0.4656992957	0.343081203279	0.661700465895	-0.191
C	0.0479878758984	0.213842622296	0.658001016259	-0.191
C	0.208315803841	0.377333484002	0.958055341096	-0.191
C	0.331135574607	0.381305612061	0.553615275745	-0.191
C	0.327745443283	0.181016953389	0.95283402072	-0.191
C	0.178446686402	0.186962438219	0.537525923365	-0.191
C	0.352183445009	0.471819592243	0.682501270318	-0.191
C	0.351407816397	0.0662317571455	0.838218440558	-0.191
C	0.16944538291	0.475552978847	0.841106445397	-0.191
C	0.161048513905	0.076140804483	0.690977469849	-0.191
C	0.443791110867	0.229761101358	0.603617158767	-0.191
C	0.0637605152628	0.329306012222	0.592169254043	-0.191
C	0.083427471149	0.232792784783	0.904791111982	-0.191
C	0.441867271387	0.325436606784	0.922171120056	-0.191
C	0.107561484711	0.451676345781	0.715393944316	-0.191
C	0.0848184557081	0.0871201574636	0.807809633547	-0.191
C	0.410305198281	0.0999596775432	0.711295361929	-0.191
C	0.405776338642	0.450060208453	0.796385688761	-0.191
C	0.208850288179	0.124815038288	0.938362734961	-0.191
C	0.298693604648	0.127961867879	0.573162824767	-0.191
C	0.209508267162	0.43600660522	0.566435752216	-0.191
C	0.31417526642	0.432882589385	0.94758091687	-0.191
C	0.206325170067	0.464990935563	0.592131463869	-0.191
C	0.296995240882	0.0977161973002	0.59879887039	-0.191
C	0.199769319745	0.0913246323155	0.918319678744	-0.191
C	0.315275053908	0.46153866578	0.920600394274	-0.191
C	0.442645899434	0.124423460712	0.709844987904	-0.191
C	0.0614407834448	0.118596950143	0.804498226538	-0.191
C	0.0753216341168	0.429011630574	0.70862895942	-0.191
C	0.434724840949	0.42272205274	0.800853893929	-0.191
C	0.116220447671	0.240805577851	0.92525325902	-0.191
C	0.0942972699471	0.330407691793	0.566067284499	-0.191
C	0.413992053544	0.233200344219	0.577595011916	-0.191
C	0.408465852047	0.324403991225	0.9457034728	-0.191
C	0.19413383968	0.0689486766377	0.802915091763	-0.57260001
C	0.307031266467	0.478488470906	0.803864598677	-0.57260001
C	0.301469802694	0.0774180650265	0.701327209934	-0.57260001
C	0.216640794358	0.47969032397	0.711968559013	-0.57260001
C	0.300292054643	0.242471726734	0.551734237021	-0.57260001
C	0.300407321045	0.317617804208	0.977666122121	-0.57260001
C	0.217041845261	0.320451368641	0.53295914347	-0.57260001
C	0.233933625719	0.238614069339	0.968507378308	-0.57260001
C	0.0504594089053	0.323481014874	0.694712954689	-0.57260001
C	0.461374064416	0.327655760056	0.817974128058	-0.57260001
C	0.0356233506966	0.235910367392	0.782131237935	-0.57260001
C	0.46992341116	0.226717198181	0.707644412537	-0.57260001
C	0.478083463392	0.314582098806	0.547042314307	-0.57260001
C	0.0515333585223	0.240993801067	0.537763529342	-0.57260001
C	0.0532914996669	0.323503051422	0.950036992244	-0.57260001
C	0.447185512087	0.22446584738	0.955270050934	-0.57260001
C	0.0491138379193	0.476848104611	0.794692277222	-0.57260001
C	0.0488322621709	0.073716219458	0.712325682796	-0.57260001
C	0.45975939923	0.0722177312328	0.802153011333	-0.57260001
C	0.471483294474	0.475873595907	0.715483534545	-0.57260001
C	0.283698250272	0.0574785938552	0.967055487197	-0.57260001
C	0.207574256738	0.0794325844312	0.54553084858	-0.57260001
C	0.302965232573	0.482648661104	0.552272827709	-0.57260001
C	0.229965390846	0.488640884474	0.975781070789	-0.57260001
H	0.213570860549	0.45132184183	0.872608332991	0.1536
H	0.318272324466	0.0839174689958	0.885125208851	0.1536
H	0.321418444461	0.456516312996	0.633060707034	0.1536
H	0.186464172664	0.089676300984	0.638878600746	0.1536
H	0.370146440139	0.215705772919	0.932699515567	0.1536
H	0.377423469169	0.350957718394	0.57509239	0.1536
H	0.168936156974	0.34039050302	0.931087742331	0.1536
H	0.131465191549	0.216704928002	0.555683605218	0.1536
H	0.45205974178	0.393633760356	0.692292457672	0.1536
H	0.0691479776481	0.39155014643	0.81098772934	0.1536
H	0.430360802017	0.18071323397	0.802437139429	0.1536
H	0.0706372063116	0.177183648809	0.697279081422	0.1536
H	0.430278811853	0.22494609773	0.861233139236	0.1536
H	0.0789029664956	0.335298324583	0.854281154239	0.1536
H	0.450242034563	0.341244752215	0.638424591904	0.1536
H	0.0677887026252	0.214457992161	0.640905100398	0.1536
H	0.215147090513	0.396473559111	0.938975665742	0.1536
H	0.323481474291	0.397123590684	0.574551154853	0.1536
H	0.324938990601	0.162747331725	0.933647032724	0.1536
H	0.178806330421	0.165631350986	0.554437175459	0.1536
H	0.369319529659	0.449414688575	0.683508875342	0.1536
H	0.373132968378	0.0817844832749	0.839159280989	0.1536
H	0.149221521381	0.457533837172	0.844552288111	0.1536
H	0.142827146743	0.0967347082829	0.694650012384	0.1536
H	0.443776079939	0.210284191458	0.624289115097	0.1536
H	0.0556516774491	0.349942733465	0.608540257154	0.1536
H	0.0827352177999	0.214688213605	0.884135677107	0.1536
H	0.450336736245	0.346503793381	0.907086289751	0.1536
H	0.131949279278	0.452755038044	0.701033599604	0.1536
H	0.0985046018037	0.0781224221672	0.829549705431	0.1536
H	0.388465704856	0.0981671048757	0.693980829579	0.1536
H	0.384698651476	0.456184106554	0.811243680455	0.1536
H	0.195078199856	0.148482579368	0.939776132923	0.1536
H	0.320812795283	0.145340340787	0.569195552844	0.1536
H	0.190927485066	0.416791003063	0.563646277433	0.1536
H	0.331262570815	0.412744189269	0.949025945622	0.1536
H	0.187030402051	0.471672305078	0.610508591245	0.1536
H	0.317273606813	0.0899412939215	0.617050239076	0.1536
H	0.175294238185	0.0889892542346	0.906420966558	0.1536
H	0.335469468059	0.466001321953	0.902468072177	0.1536
H	0.448049429088	0.14329512395	0.689468615633	0.1536
H	0.0546903549641	0.134775748848	0.826336480819	0.1536
H	0.0743330933643	0.412773884012	0.687283954059	0.1536
H	0.435911710383	0.406115308228	0.822448150604	0.1536
H	0.139478346371	0.224413021424	0.922719942164	0.1536
H	0.112426636344	0.352877668519	0.561218091441	0.1536
H	0.392499849233	0.215816139816	0.577774085429	0.1536
H	0.388373854375	0.34467188424	0.947180909447	0.1536
H	0.190336821225	0.085247275079	0.826105201776	0.1481
H	0.312884585235	0.473764283385	0.776912575328	0.1481
H	0.289728383724	0.338285952983	0.962141611625	0.1481
H	0.260398127663	0.237016225394	0.978031543617	0.1481
H	0.442791419013	0.333483665654	0.838999436454	0.1481
H	0.0244843145891	0.252656968899	0.761149511241	0.1481
H	0.0698529550768	0.320443309776	0.672677059198	0.1481
H	0.458819606544	0.204430853276	0.720139536844	0.1481
H	0.217812644662	0.336996486079	0.557033330935	0.1481
H	0.272024149669	0.248150665396	0.547850964637	0.1481
H	0.295706734281	0.0791228947458	0.730202869586	0.1481
H	0.208903555211	0.473735943776	0.739150534099	0.1481
H	0.0274149047494	0.246084515417	0.526090029261	0.1481
H	0.0503294928167	0.340230502948	0.925936506877	0.1481
H	0.0342421380168	0.0495634843669	0.718145856342	0.1481
H	0.448069125191	0.0466000914998	0.804130556425	0.1481
H	0.299820410044	0.0471636501304	0.946420822172	0.1481
H	0.184123410117	0.0914732707755	0.556116417905	0.1481
H	0.30907739184	0.474030133741	0.524827668977	0.1481
H	0.209654406678	0.487283870182	0.955179479853	0.1481
H	0.0238833755945	0.466140635036	0.79931856225	0.1481
H	0.495666817004	0.488974788767	0.72008901813	0.1481
H	0.463121352368	0.337583060981	0.544311444099	0.1481
H	0.437655709623	0.217754241593	0.979424057105	0.1481
H	0.180235226514	0.0799542411829	0.781449071873	0.1481
H	0.279036602814	0.478896488489	0.807097982632	0.1481
H	0.27767926386	0.30615232647	0.984269388062	0.1481
H	0.224884475278	0.264012683044	0.960204623345	0.1481
H	0.460486678327	0.300384274826	0.815229786062	0.1481
H	0.0537812192904	0.250381362815	0.797461322721	0.1481
H	0.0584931925725	0.343050636277	0.713994886009	0.1481
H	0.472052228732	0.246449660318	0.728576380113	0.1481
H	0.204630376262	0.294221491661	0.537635452526	0.1481
H	0.300709996194	0.224376429551	0.572341733848	0.1481
H	0.316563501911	0.0981267291467	0.692587133949	0.1481
H	0.20999451353	0.457659317746	0.694733694156	0.1481
H	0.0460859266122	0.218686044085	0.552553346019	0.1481
H	0.0701099268362	0.341180175326	0.965898860891	0.1481
H	0.0706718024728	0.0696029130011	0.696401049243	0.1481
H	0.455154539937	0.0878302405905	0.826258930639	0.1481
H	0.271379025546	0.0355969218019	0.979491969765	0.1481
H	0.207146848256	0.0525306251713	0.552401379379	0.1481
H	0.320049088315	0.470491846675	0.570681425545	0.1481
H	0.222229578096	0.475385932599	0.999160997095	0.1481
H	0.0657582060924	0.470862934281	0.816628656016	0.1481
H	0.473641855506	0.454863581597	0.695549265037	0.1481
H	0.503332616258	0.321679349031	0.558018226322	0.1481
H	0.43698306279	0.209588272964	0.934859729911	0.1481
H	0.222643229189	0.0659655432371	0.794284205312	0.1481
H	0.318286478598	0.461596631222	0.823014295404	0.1481
H	0.317460612398	0.302448823877	0.959459898841	0.1481
H	0.233300622028	0.220962024186	0.947594206511	0.1481
H	0.455719143965	0.337547565737	0.794689600798	0.1481
H	0.0484748028161	0.213689219298	0.766503826628	0.1481
H	0.0469537534161	0.297268686641	0.703970276705	0.1481
H	0.456160832549	0.235952629285	0.687109414166	0.1481
H	0.243014491996	0.318192439026	0.525968504875	0.1481
H	0.310418513695	0.266130458647	0.561580260901	0.1481
H	0.276035984882	0.0773806889737	0.689478023977	0.1481
H	0.243801982849	0.483028379146	0.712134923807	0.1481
H	0.0685835323418	0.232155195991	0.51593272001	0.1481
H	0.0283950414882	0.316857552842	0.96349434228	0.1481
H	0.0338220453358	0.0922197463782	0.697910648656	0.1481
H	0.486978534818	0.0657992689082	0.799137029449	0.1481
H	0.299245274323	0.0727419365486	0.984431511918	0.1481
H	0.209274552041	0.0839865410116	0.518482465894	0.1481
H	0.306869301198	0.510313292179	0.553201503085	0.1481
H	0.238618337815	0.513982062355	0.978667793407	0.1481
H	0.0476220669814	0.506118450893	0.793536612839	0.1481
H	0.452128064275	0.491590346237	0.701326545579	0.1481
H	0.487519754538	0.301568748152	0.522151633984	0.1481
H	0.475035962824	0.218930114066	0.956737529174	0.1481
N	0.225864653833	0.503424128927	0.846476100291	-0.28
N	0.291481822845	0.0398191051523	0.852398982786	-0.28
N	0.301001707356	0.506085625178	0.662125256573	-0.28
N	0.20926989642	0.0403309812099	0.666248126473	-0.28
N	0.350962743915	0.230522064145	0.988506560536	-0.28
N	0.360488682144	0.334044098141	0.519883833973	-0.28
N	0.173078321372	0.332463973666	0.988385466996	-0.28
N	0.164702848228	0.244300452055	0.512981600842	-0.28
N	0.493171788053	0.361017604927	0.719539327747	-0.28
N	0.0178136424474	0.363814609137	0.793607287774	-0.28
N	0.489952427279	0.190595732025	0.797444941195	-0.28
N	0.0105533922374	0.18912496273	0.704399662758	-0.28
N	0.490167164479	0.232458773261	0.848326295984	-0.28
N	0.0297286982608	0.313476182771	0.829108752561	-0.28
N	0.492231238537	0.313867180296	0.673299707176	-0.28
N	0.0122152728806	0.231108343295	0.651107195996	-0.28
N	0.21873512576	0.378733438525	0.996859782121	-0.28
N	0.313332512722	0.380798524188	0.515767844231	-0.28
N	0.313088504945	0.178293999068	0.990576787539	-0.28
N	0.207368486423	0.19452296411	0.510215169924	-0.28
N	0.345630340503	0.501566931271	0.708088736706	-0.28
N	0.338584139704	0.0438934666027	0.806585604216	-0.28
N	0.167126046118	0.505209817932	0.81311555742	-0.28
N	0.166937002748	0.0450319832822	0.7161462535	-0.28
N	0.47055312253	0.259132445906	0.597301488301	-0.28
N	0.0445070840301	0.294657627137	0.58646264256	-0.28
N	0.0572230785801	0.264059371324	0.90829653395	-0.28
N	0.461464007038	0.288774247286	0.922333018624	-0.28
N	0.101130324988	0.475349225712	0.745505103899	-0.28
N	0.0849285847102	0.0669044259067	0.772080439264	-0.28
N	0.412170645069	0.0766595960648	0.745674040559	-0.28
N	0.418379028431	0.4743827834	0.766563712815	-0.28
N	0.241839375142	0.118012569826	0.960584880717	-0.28
N	0.264723491474	0.127164750448	0.552311935234	-0.28
N	0.244970581721	0.437559319752	0.547756843804	-0.28
N	0.279912747229	0.437747682633	0.970188334757	-0.28
N	0.239951410826	0.48714865328	0.590992981734	-0.28
N	0.264055112528	0.0760837737111	0.594202311136	-0.28
N	0.228465405728	0.0638454690731	0.922593614597	-0.28
N	0.282863714969	0.484821439578	0.925102371802	-0.28
N	0.464497763839	0.116014258908	0.742076693186	-0.28
N	0.0470040491634	0.120340015673	0.767525902331	-0.28
N	0.0510603776814	0.432498471935	0.737002408621	-0.28
N	0.462618610322	0.429588976961	0.773576885677	-0.28
N	0.110178979792	0.273770890241	0.946408077644	-0.28
N	0.0972511132856	0.296096173624	0.546197540577	-0.28
N	0.422822894634	0.266364487684	0.555188154174	-0.28
N	0.410024343245	0.28710093135	0.961941892543	-0.28
Zn	0.264488438223	0.525996943821	0.885327655555	0.68940001
Zn	0.255770536325	0.0273664397012	0.630024285264	0.68940001
Zn	0.390119622922	0.281796735995	0.507043483624	0.68940001
Zn	0.141743287796	0.283999224395	0.997410192887	0.68940001
Zn	0.510913568259	0.396537355935	0.76211335109	0.68940001
Zn	0.999442785634	0.149383804938	0.747888229703	0.68940001
Zn	1.01234306643	0.273009740554	0.872333603101	0.68940001
Zn	1.00032794605	0.276462833481	0.616300733084	0.68940001
Zn	0.262359835886	0.406341556016	0.505074621589	0.68940001
Zn	0.252093070001	0.155608464701	0.00528645500795	0.68940001
Zn	0.377301221281	0.03102352273	0.759360040401	0.68940001
Zn	0.122857692571	0.0263573074329	0.752065149241	0.68940001
C	0.185331023578	0.534904008932	0.327254941317	0.41839999
C	0.309703105624	0.0248087030719	0.317635459263	0.41839999
C	0.325744920956	0.542036279142	0.19529572748	0.41839999
C	0.188477046379	0.0185794241935	0.192833549923	0.41839999
C	0.312825559894	0.714519277834	0.00581502315295	0.41839999
C	0.334495269581	0.843520106959	0.491034488652	0.41839999
C	0.195960308556	0.836037174019	0.00547612758128	0.41839999
C	0.207272091549	0.71669155739	0.500250442592	0.41839999
C	1.01175377097	0.848060923938	0.189205140587	0.41839999
C	0.515813651294	0.833410482013	0.298540071388	0.41839999
C	0.0148621306277	0.724986957742	0.307387867769	0.41839999
C	0.502463077939	0.711680656884	0.177471083606	0.41839999
C	0.445555282357	0.779995582521	0.0518042902394	0.41839999
C	0.0639403282094	0.771412541749	0.0608070457149	0.41839999
C	0.0765115594708	0.779563158934	0.445783670499	0.41839999
C	0.462118495319	0.783803535498	0.43672156691	0.41839999
C	0.0750086023047	0.964105785434	0.260933454955	0.41839999
C	0.0651411554867	0.592862335024	0.245174766263	0.41839999
C	0.446666839534	0.594206972881	0.251997749856	0.41839999
C	0.453420747976	0.968176023413	0.247118176904	0.41839999
C	0.270374721801	0.586613637074	0.440166976954	0.41839999
C	0.249022702706	0.591818996565	0.0802153685581	0.41839999
C	0.252969290649	0.963452813348	0.0586550657492	0.41839999
C	0.265852250792	0.978220730907	0.45550718804	0.41839999
C	0.200156070035	0.982330303499	0.351428125751	-0.191
C	0.313944467518	0.578806241133	0.337525201949	-0.191
C	0.328399032496	0.982287540796	0.148429374784	-0.191
C	0.187552431986	0.582756800813	0.174979919239	-0.191
C	0.35436547959	0.715165998701	0.440580018287	-0.191
C	0.356488976037	0.846406482674	0.0435704299195	-0.191
C	0.172687344884	0.854036130543	0.464132231995	-0.191
C	0.169923376318	0.72185826983	0.0607031072986	-0.191
C	0.468886542301	0.883252141092	0.162856907037	-0.191
C	0.0657456102876	0.869331849806	0.31356133311	-0.191
C	0.46151820399	0.689414289228	0.320674674688	-0.191
C	0.0566563358233	0.698422720492	0.184983575313	-0.191
C	0.460882571469	0.72054661817	0.345541167386	-0.191
C	0.0661185948985	0.8420638331	0.340142512286	-0.191
C	0.465383109206	0.851454117745	0.139298328551	-0.191
C	0.0526758074953	0.729778024863	0.160606483642	-0.191
C	0.196644354707	0.883682815356	0.469204954361	-0.191
C	0.326221059498	0.872076203273	0.0463678473926	-0.191
C	0.326202993731	0.687024525307	0.446133662826	-0.191
C	0.201447652172	0.699984903563	0.0643140778827	-0.191
C	0.351507261388	0.976194605692	0.18110955481	-0.191
C	0.346406548946	0.578068466441	0.314584658608	-0.191
C	0.171460197217	0.981849319489	0.322694354042	-0.191
C	0.160433723361	0.581265485227	0.202426795858	-0.191
C	0.45439435431	0.72250212097	0.0784439221205	-0.191
C	0.0614862051407	0.831704727955	0.0786088297857	-0.191
C	0.0861012701765	0.723688306317	0.413548257426	-0.191
C	0.455389678513	0.833906841993	0.40038910511	-0.191
C	0.102107059399	0.963241735949	0.204028204272	-0.191
C	0.0933009581344	0.597766741518	0.301569493757	-0.191
C	0.416042081321	0.595042167208	0.196651158415	-0.191
C	0.416986506912	0.95866982098	0.298780398385	-0.191
C	0.213394985688	0.613174803593	0.443719858856	-0.191
C	0.303383503197	0.62392857211	0.0790215492145	-0.191
C	0.201845853512	0.930648264696	0.0722819410729	-0.191
C	0.322940243788	0.948002863811	0.450296620253	-0.191
C	0.202513240137	0.962233845213	0.097038648427	-0.191
C	0.301564598818	0.602718755248	0.112210054711	-0.191
C	0.211195300748	0.584878296341	0.417539320701	-0.191
C	0.319795794104	0.976382707395	0.42279636069	-0.191
C	0.444694204671	0.622745888266	0.194503159789	-0.191
C	0.0711972008287	0.629732637432	0.296280207486	-0.191
C	0.0663892264105	0.94758975692	0.200194037937	-0.191
C	0.447161842895	0.93376842845	0.299428948233	-0.191
C	0.10977334347	0.725609339258	0.446186598485	-0.191
C	0.0851427534912	0.830232818451	0.0472094100653	-0.191
C	0.421138250517	0.721370221717	0.0566252739897	-0.191
C	0.424711606316	0.832190781424	0.423913483472	-0.191
C	0.196990319086	0.574033441887	0.319429935295	-0.57260001
C	0.310822807833	0.982987731122	0.311189996302	-0.57260001
C	0.309897134333	0.577631615218	0.216102332424	-0.57260001
C	0.212642993522	0.976143792044	0.200639955884	-0.57260001
C	0.303080568844	0.734204594367	0.0466153360285	-0.57260001
C	0.319340765624	0.834700683927	0.452864873041	-0.57260001
C	0.202919300468	0.830314867752	0.047178271635	-0.57260001
C	0.213371808681	0.720504154977	0.457321264474	-0.57260001
C	0.0563289712972	0.838726528857	0.193355991222	-0.57260001
C	0.478678517011	0.817492292989	0.284829022672	-0.57260001
C	0.0521103558054	0.743360067701	0.293893133034	-0.57260001
C	0.462259734276	0.723567959757	0.190506992001	-0.57260001
C	0.455354084297	0.820012669179	0.0355108717845	-0.57260001
C	0.0626960246516	0.727646299148	0.0532874336669	-0.57260001
C	0.0626017974735	0.820441741117	0.456019500558	-0.57260001
C	0.479430853199	0.746803387578	0.454327770165	-0.57260001
C	0.0680713037024	0.976113381617	0.302329955212	-0.57260001
C	0.0565942504509	0.576307454597	0.206381324525	-0.57260001
C	0.463070450045	0.579064002965	0.290975054382	-0.57260001
C	0.468566489423	0.982131332637	0.206894015896	-0.57260001
C	0.311993357256	0.573308459631	0.452451416358	-0.57260001
C	0.211480778121	0.574361465721	0.0659774173035	-0.57260001
C	0.289199420001	0.977972927106	0.0422551743602	-0.57260001
C	0.23232167954	0.996414971961	0.47484154336	-0.57260001
H	0.206495071311	0.961954968537	0.36732686951	0.1536
H	0.302824632427	0.600500091747	0.352155820857	0.1536
H	0.327520030546	0.968359825842	0.125946464716	0.1536
H	0.190351912835	0.604530528135	0.15906130912	0.1536
H	0.370139165832	0.71842411763	0.419055001221	0.1536
H	0.376566187748	0.841231129927	0.0602264662696	0.1536
H	0.156752674617	0.849877842416	0.444816900524	0.1536
H	0.154358845212	0.729517489965	0.0814905544519	0.1536
H	0.450782082559	0.903712921032	0.163528109636	0.1536
H	0.0883359296282	0.885075921847	0.309517144191	0.1536
H	0.440223466825	0.672460479733	0.316487991782	0.1536
H	0.0793760279359	0.683216547676	0.190589022652	0.1536
H	0.441187450473	0.726225561632	0.363907207875	0.1536
H	0.0845808145386	0.836526103522	0.358377131152	0.1536
H	0.44732888604	0.848195289946	0.120691425039	0.1536
H	0.0719498510935	0.738120650312	0.140824459687	0.1536
H	0.196349685368	0.90841693753	0.455316729774	0.1536
H	0.320182747107	0.890997430696	0.0668555406229	0.1536
H	0.320940321147	0.666598031803	0.427880749298	0.1536
H	0.210485609051	0.686984468821	0.0875933732356	0.1536
H	0.370523666093	0.957249965192	0.187875735912	0.1536
H	0.366091083367	0.597656928108	0.31192147006	0.1536
H	0.154513933266	0.961774733514	0.315802784722	0.1536
H	0.142017228204	0.600430566915	0.210646074114	0.1536
H	0.465894348623	0.701562627709	0.0916841223938	0.1536
H	0.0545634467819	0.853698306189	0.0964299905117	0.1536
H	0.0825623828457	0.702458585954	0.397637513847	0.1536
H	0.45961839082	0.851370992551	0.378743318599	0.1536
H	0.11879123147	0.963634428808	0.182169743183	0.1536
H	0.105657170692	0.5886486157	0.324520436182	0.1536
H	0.396302923916	0.588002169166	0.17703548461	0.1536
H	0.398712932223	0.963624578755	0.32128631601	0.1536
H	0.192245104578	0.627115845978	0.453844657095	0.1536
H	0.324266206678	0.638486590108	0.0668170864723	0.1536
H	0.182499151053	0.91110374289	0.0723473609359	0.1536
H	0.34543153898	0.934071104962	0.456080217115	0.1536
H	0.183545839025	0.966258972057	0.115449549868	0.1536
H	0.320742768002	0.598732228111	0.132526626473	0.1536
H	0.190094457418	0.576748913579	0.403762068404	0.1536
H	0.339562621985	0.981763080895	0.405571512099	0.1536
H	0.450388208973	0.639264017661	0.173960998494	0.1536
H	0.0648763173119	0.650521838187	0.311337725646	0.1536
H	0.0569883996958	0.937699810368	0.177927574422	0.1536
H	0.455102617367	0.918602402232	0.320264990949	0.1536
H	0.127460566214	0.705819737741	0.452775517101	0.1536
H	0.0952908152819	0.850183023161	0.0352923532022	0.1536
H	0.405117849632	0.70044682294	0.0501543527121	0.1536
H	0.4030256179	0.847515230194	0.425966902709	0.1536
H	0.227039938127	0.572523062987	0.316915972446	0.1481
H	0.316568902673	0.967568975749	0.336313636564	0.1481
H	0.299911431443	0.813990717333	0.454112678791	0.1481
H	0.236035669938	0.73688193384	0.447669830965	0.1481
H	0.47409450282	0.793052911472	0.296807815885	0.1481
H	0.0658366662664	0.725350754896	0.27614578192	0.1481
H	0.0661830065284	0.836836539069	0.168677542895	0.1481
H	0.448408181928	0.734879164642	0.168512755399	0.1481
H	0.184463833321	0.843471959618	0.0638084769746	0.1481
H	0.277619619224	0.743820295544	0.0430735819739	0.1481
H	0.332020209749	0.591711954312	0.229969385783	0.1481
H	0.239473419573	0.973349458503	0.195052032833	0.1481
H	0.0879081364428	0.716237650562	0.0616320331768	0.1481
H	0.043712857468	0.8178982277	0.476182546099	0.1481
H	0.0440105880707	0.551869826099	0.210677261637	0.1481
H	0.451948286162	0.555432337156	0.299961492	0.1481
H	0.326079128193	0.565610541155	0.42777815208	0.1481
H	0.191111826775	0.590699908947	0.0803563954676	0.1481
H	0.281503188792	0.00265552823107	0.0527617280722	0.1481
H	0.224881738416	-0.000797583762463	0.502458025304	0.1481
H	0.0625187573085	0.953321173868	0.317633038416	0.1481
H	0.476161931509	0.962431338479	0.188228274875	0.1481
H	0.432964694594	0.83678282397	0.0369068290212	0.1481
H	0.476431762027	0.723759833153	0.435867173155	0.1481
H	0.186709324546	0.591889355952	0.33967327156	0.1481
H	0.324313629418	0.968346629468	0.290460259248	0.1481
H	0.341091674113	0.82739864124	0.437773831753	0.1481
H	0.188696939213	0.733294034574	0.449980111766	0.1481
H	0.478158739514	0.813737665188	0.258068573341	0.1481
H	0.0469430633926	0.764609005938	0.277951195098	0.1481
H	0.0716099780397	0.857245580209	0.20565425214	0.1481
H	0.448063339866	0.700034179804	0.198620608373	0.1481
H	0.200272652419	0.803879922075	0.0539499531348	0.1481
H	0.304036827076	0.716183307976	0.0674564255476	0.1481
H	0.295870420277	0.593039901021	0.196430545327	0.1481
H	0.207430721807	0.966403831712	0.22675622089	0.1481
H	0.0587060749759	0.724525182619	0.0239397617502	0.1481
H	0.0490703507336	0.829131797481	0.432904277485	0.1481
H	0.0802934500044	0.573167449837	0.190557008043	0.1481
H	0.45625300325	0.597514974141	0.311819226937	0.1481
H	0.308816637746	0.55432539045	0.472736902512	0.1481
H	0.210300679824	0.548401415113	0.0753114289266	0.1481
H	0.287280412839	0.977809374977	0.0154234185214	0.1481
H	0.214586691248	0.0227140421267	0.464125216699	0.1481
H	0.0923393540044	0.989377619337	0.311151941081	0.1481
H	0.438645224146	0.0017828558052	0.193721684033	0.1481
H	0.479031097603	0.830004463455	0.04718317253	0.1481
H	0.507268550038	0.748588916464	0.455990020223	0.1481
H	0.185582571625	0.583612763798	0.293925871344	0.1481
H	0.285276100439	0.980488752303	0.305037660942	0.1481
H	0.308935638801	0.858743341931	0.441417230727	0.1481
H	0.215547285997	0.694073390952	0.445363718362	0.1481
H	0.456737300243	0.833644399438	0.289853722712	0.1481
H	0.0676534402817	0.753145996999	0.314025709002	0.1481
H	0.0612881930959	0.813209969239	0.205167628485	0.1481
H	0.464800526096	0.744647777165	0.209970333497	0.1481
H	0.227024671278	0.840304232232	0.0559811031092	0.1481
H	0.323725051344	0.753725003356	0.051858625306	0.1481
H	0.289914826527	0.569718030073	0.235665983029	0.1481
H	0.198841058508	0.96137101669	0.180851930479	0.1481
H	0.0427993432373	0.715243106196	0.0675894353859	0.1481
H	0.0836672714631	0.838650464363	0.462836273489	0.1481
H	0.0394577337646	0.590915397784	0.191223193721	0.1481
H	0.490518905568	0.570496879781	0.291509937328	0.1481
H	0.325433500275	0.594563710243	0.465528216519	0.1481
H	0.210709583683	0.578000323597	0.0373771208847	0.1481
H	0.310752545355	0.964144020974	0.0514945577049	0.1481
H	0.210346494788	0.97722698681	0.470015292751	0.1481
H	0.0430935674843	0.99431216715	0.30437523308	0.1481
H	0.493208032931	0.997587185542	0.210783496534	0.1481
H	0.46730164947	0.817340200341	0.0108536362823	0.1481
H	0.469268913349	0.741746554362	0.478767841288	0.1481
N	0.2046856228	0.0196150703779	0.349905701215	-0.28
N	0.29962156283	0.540777165262	0.337986101989	-0.28
N	0.291192172674	0.0126256322626	0.157326694226	-0.28
N	0.20944681314	0.547591557162	0.174898473812	-0.28
N	0.356000008887	0.736353087904	0.475486610303	-0.28
N	0.35234797285	0.823203075024	0.0107552020221	-0.28
N	0.183784251601	0.823817110416	0.489731388792	-0.28
N	0.167288689406	0.732811889532	0.0211053941316	-0.28
N	0.496165808861	0.87561334513	0.191104113223	-0.28
N	0.0290954529871	0.868746721712	0.295926967697	-0.28
N	0.493666065813	0.689343590972	0.296286911646	-0.28
N	0.0218871794052	0.695276168543	0.205624830111	-0.28
N	0.498012806659	0.73695830729	0.34041627732	-0.28
N	0.0319502475562	0.820833934533	0.339836409411	-0.28
N	0.495245585607	0.825759138744	0.149475202484	-0.28
N	0.0169376727843	0.746071662815	0.166595439257	-0.28
N	0.223982954849	0.87547961907	0.498255628338	-0.28
N	0.303525078418	0.868176625146	0.0140312742357	-0.28
N	0.308913141731	0.689333640018	0.482766362467	-0.28
N	0.219721645707	0.695346625632	0.030196113333	-0.28
N	0.329856973755	0.00494056802374	0.208226385404	-0.28
N	0.352097525786	0.542383269771	0.298207111605	-0.28
N	0.159434808768	0.0181548964079	0.304046433707	-0.28
N	0.16549282166	0.547056213168	0.223672654316	-0.28
N	0.467418319889	0.760499480912	0.0793729885734	-0.28
N	0.0493930749021	0.793457108284	0.0888314584783	-0.28
N	0.0635092945305	0.757372129286	0.414558064558	-0.28
N	0.479289717815	0.802907420452	0.407302689558	-0.28
N	0.106961120717	0.976284781597	0.24279245139	-0.28
N	0.0923593221815	0.57548243175	0.26844880859	-0.28
N	0.419163314456	0.575108146164	0.231694143781	-0.28
N	0.419482535574	0.980713709179	0.265664119847	-0.28
N	0.250668141266	0.614901952217	0.459432467336	-0.28
N	0.269083019716	0.618668425998	0.0605802584593	-0.28
N	0.234209415493	0.931277470936	0.0471639960669	-0.28
N	0.287483794016	0.948251553164	0.471603600958	-0.28
N	0.235208390115	0.982419666878	0.0890777053345	-0.28
N	0.26782229678	0.58250773679	0.113406432982	-0.28
N	0.246575835337	0.568397033769	0.413837298334	-0.28
N	0.285162470747	0.993793398363	0.425604820987	-0.28
N	0.463018371108	0.623969260441	0.230821901964	-0.28
N	0.0541550817081	0.627860584205	0.260079544594	-0.28
N	0.0486789206808	0.944744273071	0.236962655801	-0.28
N	0.471685734062	0.938510341166	0.266383950885	-0.28
N	0.106300406397	0.76038992639	0.465707645232	-0.28
N	0.0886773938047	0.79187987122	0.0364896011909	-0.28
N	0.414221566306	0.758122046707	0.0400789185296	-0.28
N	0.429451919284	0.799688282356	0.447872594902	-0.28
Zn	0.253542078012	0.0388580098704	0.388071758409	0.68940001
Zn	0.257125508038	0.534063939116	0.143783183999	0.68940001
Zn	0.390471682878	0.767954401162	0.996211341975	0.68940001
Zn	0.145604992122	0.778941495593	0.505627130937	0.68940001
Zn	0.507402365504	0.901904722093	0.242591825063	0.68940001
Zn	1.00606354259	0.658336887566	0.247147372899	0.68940001
Zn	0.0172892393037	0.77751591656	0.378532376977	0.68940001
Zn	1.00184269253	0.781849053209	0.126755788854	0.68940001
Zn	0.252312879222	0.899542421136	0.00289992354674	0.68940001
Zn	0.265319216344	0.654644017617	0.504757402347	0.68940001
Zn	0.389747425354	0.530029517484	0.253566453294	0.68940001
Zn	0.127011668649	0.530121074483	0.262289166347	0.68940001
C	0.202974484286	0.520831432308	0.819270720534	0.41839999
C	0.306136482578	0.0255719722908	0.818429359118	0.41839999
C	0.316902164414	0.522287723574	0.693571970139	0.41839999
C	0.195992665577	0.0242664157774	0.700727056863	0.41839999
C	0.330091114559	0.719797182283	0.499626472682	0.41839999
C	0.331074431937	0.834579982549	0.99274014279	0.41839999
C	0.213600143472	0.839529444048	0.510219445738	0.41839999
C	0.19820232772	0.715614957964	0.00310124729507	0.41839999
C	0.0222940768557	0.832450873314	0.68672423151	0.41839999
C	0.504982994155	0.834799669386	0.812402539246	0.41839999
C	0.0213674375446	0.71265793108	0.811000084742	0.41839999
C	0.509426258091	0.713839711197	0.681472346982	0.41839999
C	0.455360259644	0.780481441596	0.5559061535	0.41839999
C	0.0845953996533	0.772881609592	0.56654074556	0.41839999
C	0.085806917038	0.779426017545	0.93718774167	0.41839999
C	0.453311597928	0.755645438261	0.933845434989	0.41839999
C	0.0696368807394	0.96773904903	0.747362392982	0.41839999
C	0.0777294463742	0.581639673675	0.751334318619	0.41839999
C	0.453356775824	0.579586531726	0.745121698629	0.41839999
C	0.449311966349	0.963043004434	0.746130416505	0.41839999
C	0.262643180058	0.583159587012	0.954920620366	0.41839999
C	0.249732203422	0.594554023008	0.56539215175	0.41839999
C	0.278736454206	0.963569466518	0.571459321512	0.41839999
C	0.256647773856	0.955373845605	0.938717401518	0.41839999
C	0.188744459139	0.97302661832	0.84931146174	-0.191
C	0.33065711998	0.573784841263	0.846810560459	-0.191
C	0.330064763545	0.976443134993	0.668808630739	-0.191
C	0.17935514097	0.563725980074	0.661548131545	-0.191
C	0.355700994908	0.690843444166	0.954812073694	-0.191
C	0.371242965629	0.848206114815	0.544694416402	-0.191
C	0.18108513242	0.828169016625	0.94801904458	-0.191
C	0.183826806828	0.719898610577	0.557917038761	-0.191
C	0.468496590069	0.874136660895	0.684589284016	-0.191
C	0.0658468470741	0.872205681211	0.812071641459	-0.191
C	0.458088761175	0.679803486131	0.797982213879	-0.191
C	0.0706953709161	0.674542137648	0.686562567302	-0.191
C	0.460194163234	0.706078529502	0.827353652144	-0.191
C	0.0672548583551	0.847885027055	0.843029573048	-0.191
C	0.465711570977	0.845227400249	0.657281860575	-0.191
C	0.069417643779	0.700489023303	0.655734939447	-0.191
C	0.213438839081	0.85247455588	0.947042325645	-0.191
C	0.343178409638	0.876049292502	0.545956190814	-0.191
C	0.324012519159	0.667244886142	0.956881136634	-0.191
C	0.204634551734	0.686486641299	0.556622814213	-0.191
C	0.36161723382	0.981188556949	0.692715284335	-0.191
C	0.358406911082	0.571058622533	0.818687957011	-0.191
C	0.158195826569	0.976053089786	0.824371177649	-0.191
C	0.157810954982	0.565465578179	0.695240853223	-0.191
C	0.455286616325	0.723298270723	0.583693429608	-0.191
C	0.0927503730548	0.823121751023	0.601175398792	-0.191
C	0.0839043257992	0.723753269684	0.905800421217	-0.191
C	0.458674922302	0.813251891262	0.911464530058	-0.191
C	0.113296058911	0.956929735369	0.703572052281	-0.191
C	0.104353802491	0.583914165026	0.808784471585	-0.191
C	0.410553758916	0.588065500439	0.698271207316	-0.191
C	0.420237022875	0.960473488926	0.800812269783	-0.191
C	0.211411955493	0.617993194048	0.947232074519	-0.191
C	0.307339802452	0.621988146646	0.573815706452	-0.191
C	0.229037415543	0.924539845485	0.579581118492	-0.191
C	0.317627116508	0.932954670062	0.939361473701	-0.191
C	0.224286551072	0.952557022119	0.606273739137	-0.191
C	0.302324780957	0.594492191271	0.600010784734	-0.191
C	0.212245878435	0.593168232807	0.916023770476	-0.191
C	0.315546297907	0.966615766555	0.917374012791	-0.191
C	0.439689654336	0.615463211092	0.695098346921	-0.191
C	0.0772044378607	0.611796276821	0.807635495798	-0.191
C	0.0848068449194	0.928808006104	0.699765917358	-0.191
C	0.44388839333	0.93039421803	0.79827951073	-0.191
C	0.111267489899	0.719765618978	0.933368126515	-0.191
C	0.123022372621	0.821294410741	0.576195727415	-0.191
C	0.428873839943	0.723060027198	0.552566787447	-0.191
C	0.427145959236	0.811905603932	0.934341665061	-0.191
C	0.218375356815	0.555130308502	0.798865112184	-0.57260001
C	0.302892020234	0.992534954834	0.797552749104	-0.57260001
C	0.302436567698	0.556480512578	0.714236428752	-0.57260001
C	0.222438677498	0.987146870476	0.720133631478	-0.57260001
C	0.320148615437	0.734925364202	0.539587277797	-0.57260001
C	0.31391342255	0.815675711157	0.958713074481	-0.57260001
C	0.234306583896	0.817179948975	0.543264429871	-0.57260001
C	0.217477822951	0.717198743406	0.960980176651	-0.57260001
C	0.0606813744009	0.820853110683	0.704808643628	-0.57260001
C	0.462876579585	0.823799800066	0.803665289216	-0.57260001
C	0.0615053041614	0.722488572133	0.79907325483	-0.57260001
C	0.470089038627	0.726956987284	0.691259859998	-0.57260001
C	0.468256786935	0.821917434674	0.545025477098	-0.57260001
C	0.0618301109795	0.741596440293	0.546996598563	-0.57260001
C	0.0749477833261	0.819814035304	0.950556519188	-0.57260001
C	0.462305825367	0.714346002494	0.937106739352	-0.57260001
C	0.0485890960467	0.979753810557	0.78462367443	-0.57260001
C	0.0663399464253	0.56848217566	0.710285391759	-0.57260001
C	0.469871542176	0.569033874115	0.784012566872	-0.57260001
C	0.465623672681	0.976986099542	0.708434625363	-0.57260001
C	0.300234941499	0.563264569189	0.970568040726	-0.57260001
C	0.214068138615	0.578698857685	0.546893523677	-0.57260001
C	0.316222716632	0.981228861118	0.553542435204	-0.57260001
C	0.215762018784	0.962942381356	0.952557595761	-0.57260001
H	0.193473971996	0.953262223409	0.864186651538	0.1536
H	0.325803290991	0.594583921191	0.865176707018	0.1536
H	0.324550343097	0.95255432189	0.654911343857	0.1536
H	0.180623524954	0.582665762962	0.641240670302	0.1536
H	0.376716618085	0.6909784113	0.937039298569	0.1536
H	0.390404579649	0.843572511706	0.566148569901	0.1536
H	0.164157739915	0.821875795142	0.927824478025	0.1536
H	0.17222056235	0.729342263193	0.578643275271	0.1536
H	0.449547679458	0.895433926815	0.686240548931	0.1536
H	0.0836302837805	0.892423091894	0.806187101585	0.1536
H	0.435879675026	0.6656091561	0.789715385376	0.1536
H	0.0913844383227	0.657602581916	0.69080393606	0.1536
H	0.438501011011	0.714373911149	0.84315330235	0.1536
H	0.0869469154205	0.846162141576	0.860903126123	0.1536
H	0.442179859063	0.841458475901	0.641157815115	0.1536
H	0.0865525904892	0.698909613379	0.634834999359	0.1536
H	0.224480552123	0.866423432935	0.925972169729	0.1536
H	0.339493943614	0.894282341396	0.564111571905	0.1536
H	0.321013996482	0.644209618744	0.940994370045	0.1536
H	0.210431435674	0.670703813264	0.577304289392	0.1536
H	0.380534822466	0.960492086643	0.699424218063	0.1536
H	0.37722775534	0.589444255414	0.816319283139	0.1536
H	0.137831919076	0.958611213266	0.821042812741	0.1536
H	0.141254367236	0.585379553416	0.698474422208	0.1536
H	0.460038104541	0.701682139533	0.600192199523	0.1536
H	0.0862579226124	0.844166986397	0.617309132466	0.1536
H	0.0729839182441	0.702562393905	0.889301456872	0.1536
H	0.468385328955	0.836233172544	0.8992093582	0.1536
H	0.136907679901	0.962391327218	0.689209620322	0.1536
H	0.119897035635	0.577123105098	0.830007779863	0.1536
H	0.388055051892	0.587676379827	0.684018715516	0.1536
H	0.404511740359	0.964995502742	0.823575701288	0.1536
H	0.19137067907	0.636321654844	0.95020179422	0.1536
H	0.329618549743	0.638544772868	0.569312830814	0.1536
H	0.210359431857	0.902830645336	0.578142892384	0.1536
H	0.339104840174	0.916328231256	0.947782449877	0.1536
H	0.202500103849	0.955300149326	0.621589899448	0.1536
H	0.32148820949	0.588376869152	0.618990327634	0.1536
H	0.196522097364	0.592125900368	0.893286603536	0.1536
H	0.336798118597	0.977656222487	0.904985093168	0.1536
H	0.439798879006	0.637431139024	0.679331382956	0.1536
H	0.0719885802748	0.630281937723	0.828312982999	0.1536
H	0.0859488491115	0.909756875343	0.680102251859	0.1536
H	0.45103402656	0.913067531752	0.820093736188	0.1536
H	0.128036826851	0.699621449783	0.940734743568	0.1536
H	0.14177556939	0.839875003876	0.572909780661	0.1536
H	0.411508446998	0.701984964252	0.547278168146	0.1536
H	0.414854489436	0.833601957616	0.942325318696	0.1536
H	0.227535820039	0.54827209897	0.772090459679	0.1481
H	0.314151976642	0.969844089678	0.80539527649	0.1481
H	0.336898503484	0.814229448512	0.941124398293	0.1481
H	0.225581836659	0.744417774412	0.954286039643	0.1481
H	0.457686708285	0.797927945656	0.8103100781	0.1481
H	0.0783939856803	0.698410781395	0.801246534501	0.1481
H	0.0820958499846	0.822907593252	0.686933455523	0.1481
H	0.467331120236	0.747649371091	0.711034158397	0.1481
H	0.254081693201	0.798613663142	0.535928172902	0.1481
H	0.339067849109	0.754338495065	0.547539182362	0.1481
H	0.321081178363	0.576087619069	0.713887887148	0.1481
H	0.240661420256	0.97337192939	0.702217787143	0.1481
H	0.059382994185	0.751943800443	0.521652185844	0.1481
H	0.0965884665442	0.836615969799	0.954971916218	0.1481
H	0.0641377819388	0.590681830931	0.692828319078	0.1481
H	0.462022751386	0.544231751999	0.789364810085	0.1481
H	0.316875124801	0.58386131787	0.98032985464	0.1481
H	0.195538242902	0.597743812716	0.535887630556	0.1481
H	0.336367996271	0.982788428174	0.573931391414	0.1481
H	0.200795785892	0.945144342989	0.935835570441	0.1481
H	0.0444101544906	0.00536623344953	0.797721010674	0.1481
H	0.459218329737	0.0047253852514	0.709409879404	0.1481
H	0.495816951937	0.819051574496	0.5374888549	0.1481
H	0.454800975816	0.703650104986	0.962257889792	0.1481
H	0.240388312875	0.567369418221	0.814013233682	0.1481
H	0.307371089552	0.995570813524	0.770352359075	0.1481
H	0.292578296039	0.83252694707	0.949382782341	0.1481
H	0.191208000621	0.715212969756	0.951119863138	0.1481
H	0.456353412972	0.827406149934	0.777252777986	0.1481
H	0.0617330916029	0.732793097249	0.774879259334	0.1481
H	0.0661404121951	0.83775534659	0.725603606434	0.1481
H	0.457886424468	0.736507807374	0.668051143628	0.1481
H	0.247931815471	0.836439314985	0.558841277544	0.1481
H	0.294388768201	0.743896016078	0.5398069452	0.1481
H	0.27644867874	0.567551217095	0.705301495852	0.1481
H	0.237275655901	0.992928954259	0.743663093958	0.1481
H	0.0375990769434	0.740384168673	0.560810720685	0.1481
H	0.0542209443735	0.820352515662	0.968846492373	0.1481
H	0.0397230289811	0.555907521476	0.708838374818	0.1481
H	0.461083443357	0.582954838815	0.807466879437	0.1481
H	0.31421323372	0.551433231115	0.949573508065	0.1481
H	0.200765928768	0.564017895925	0.5644588649	0.1481
H	0.301930391865	0.00748808724306	0.542066963486	0.1481
H	0.216989412626	0.954742238947	0.98237266272	0.1481
H	0.0222329538389	0.984948476971	0.775904533669	0.1481
H	0.490461250062	0.963893817627	0.704096647384	0.1481
H	0.451746838373	0.834761328795	0.525372524487	0.1481
H	0.45117088137	0.699270770045	0.917432363869	0.1481
H	0.197594874454	0.573460778961	0.800333165617	0.1481
H	0.275362341168	0.988753083698	0.799528227054	0.1481
H	0.304544480782	0.79093752014	0.96448816913	0.1481
H	0.234249430256	0.698811776407	0.948269129351	0.1481
H	0.446797197707	0.840912821921	0.819406725256	0.1481
H	0.0714867707331	0.744718830849	0.814874280385	0.1481
H	0.0613863534773	0.796628302994	0.717544296432	0.1481
H	0.455407145398	0.703472786977	0.69823373429	0.1481
H	0.217024119774	0.805607814779	0.561673556009	0.1481
H	0.32009531077	0.714705630615	0.558121121565	0.1481
H	0.29773471072	0.549446425164	0.742728474381	0.1481
H	0.199710161788	0.969959011843	0.726875306504	0.1481
H	0.0694593191395	0.715576456821	0.551349228649	0.1481
H	0.0615010863878	0.830994790093	0.928925959695	0.1481
H	0.0860019735952	0.547039081085	0.705565167801	0.1481
H	0.497934660582	0.573849192948	0.782418337777	0.1481
H	0.292122319071	0.54509278766	0.990398178085	0.1481
H	0.223959615188	0.561048022689	0.523258546374	0.1481
H	0.326168125328	0.964732590194	0.532806183575	0.1481
H	0.208298067812	0.989517538735	0.952541142595	0.1481
H	0.0466916488783	0.958310668503	0.802732986767	0.1481
H	0.448139399051	0.970468769001	0.688577320147	0.1481
H	0.461891655115	0.838746779274	0.567441125142	0.1481
H	0.490046815402	0.711556370176	0.934562749522	0.1481
N	0.19804074897	0.00744149664926	0.84619622153	-0.28
N	0.305360446334	0.541458739139	0.844609664926	-0.28
N	0.298928104655	0.0138053374357	0.667421916082	-0.28
N	0.204458033454	0.533230202317	0.664834790577	-0.28
N	0.354542270103	0.718757098668	0.985280037101	-0.28
N	0.361624650081	0.82417043417	0.512045540379	-0.28
N	0.179171858217	0.814159983673	0.985030988526	-0.28
N	0.182841802972	0.73791277724	0.522655312426	-0.28
N	0.501261073677	0.870620935741	0.70412142287	-0.28
N	0.0320586953857	0.866167610111	0.79127353113	-0.28
N	0.494371387464	0.681697510833	0.778127209353	-0.28
N	0.0407583352508	0.683738814725	0.711896476725	-0.28
N	0.499209552615	0.721768754296	0.830664582069	-0.28
N	0.0351030678896	0.822315141016	0.838395347804	-0.28
N	0.499570217545	0.822168516663	0.657349853501	-0.28
N	0.0402521164484	0.727290356699	0.661573331357	-0.28
N	0.22807277501	0.855326689412	0.983793222226	-0.28
N	0.320397069732	0.874500173939	0.511426049956	-0.28
N	0.304528819521	0.680145421361	0.989896751992	-0.28
N	0.219154232578	0.683826461474	0.518893644748	-0.28
N	0.348393553835	0.0183250377657	0.711438183732	-0.28
N	0.353137007745	0.537308074114	0.799148307701	-0.28
N	0.149306652664	0.00971542555499	0.801739564116	-0.28
N	0.166496420204	0.534375651291	0.718501946423	-0.28
N	0.471304601561	0.760933142749	0.586336737197	-0.28
N	0.0680790205774	0.791331565595	0.595700384803	-0.28
N	0.0666111025388	0.759237224688	0.906270975739	-0.28
N	0.473262570485	0.775866498405	0.907763140066	-0.28
N	0.102018016477	0.982904758924	0.731704174502	-0.28
N	0.101916148807	0.562660030264	0.774714410426	-0.28
N	0.417470634301	0.5671617901	0.732724985965	-0.28
N	0.420249789686	0.981114055626	0.766202753902	-0.28
N	0.24425187111	0.614188184678	0.971671848243	-0.28
N	0.27575369928	0.620310738223	0.550210222505	-0.28
N	0.259802881061	0.931944760825	0.556913415396	-0.28
N	0.280436541163	0.92666908939	0.954289013005	-0.28
N	0.2578297981	0.976745722731	0.602906175297	-0.28
N	0.267002252567	0.575875187116	0.593780407329	-0.28
N	0.245899597386	0.570934770616	0.920844098516	-0.28
N	0.277284849419	0.979097858828	0.914424297891	-0.28
N	0.46715497736	0.607365265747	0.722276975141	-0.28
N	0.0630665621372	0.61410301225	0.767642578925	-0.28
N	0.0562922169191	0.93624279699	0.726796760753	-0.28
N	0.465219221431	0.932562787481	0.765329297944	-0.28
N	0.113045607463	0.755139689079	0.954211441191	-0.28
N	0.116735763685	0.789608875303	0.553815770308	-0.28
N	0.431465166531	0.759323432152	0.532048179404	-0.28
N	0.424186426733	0.775486332198	0.950004659266	-0.28
Zn	0.243294741188	0.0234703975443	0.882852951066	0.68940001
Zn	0.253296770324	0.527284231986	0.628007295247	0.68940001
Zn	0.393608949653	0.779646986051	0.489106960439	0.68940001
Zn	0.134417488451	0.777016315429	0.00340668413736	0.68940001
Zn	0.512501034194	0.901145600294	0.751258521604	0.68940001
Zn	1.01606955558	0.647942698727	0.751746978447	0.68940001
Zn	1.01782864013	0.775298802341	0.873901153621	0.68940001
Zn	0.0213556274509	0.769899805671	0.625706361418	0.68940001
Zn	0.27175602852	0.906502267642	0.507573501644	0.68940001
Zn	0.253989673693	0.650783398173	0.017115357498	0.68940001
Zn	0.383898451932	0.522511323836	0.74912220219	0.68940001
Zn	0.134242721207	0.516971440013	0.765549146429	0.68940001
C	0.681671436216	0.0315499617043	0.313476961715	0.41839999
C	0.820508515107	0.530929693993	0.320771285121	0.41839999
C	0.807607083821	0.0295413109052	0.199312025298	0.41839999
C	0.698458581565	0.528658754115	0.193098199377	0.41839999
C	0.816911323853	0.218760354749	0.00810701819113	0.41839999
C	0.826280989803	0.342765396732	0.493142596252	0.41839999
C	0.691140814982	0.344837171921	0.0114760403181	0.41839999
C	0.701225185215	0.215012536933	0.502783037164	0.41839999
C	0.51285923156	0.34598198925	0.194843441867	0.41839999
C	1.00589434547	0.333976756682	0.305216082365	0.41839999
C	0.512141865208	0.201068987758	0.311458018847	0.41839999
C	0.991377949238	0.214856971485	0.182531818671	0.41839999
C	0.938711652798	0.288376146769	0.0654330009789	0.41839999
C	0.554579818701	0.28114169912	0.0634700288321	0.41839999
C	0.574478233739	0.277030111759	0.446740651273	0.41839999
C	0.939755154929	0.272569613186	0.432049042263	0.41839999
C	0.575026201613	0.465834582324	0.263062824037	0.41839999
C	0.553824185705	0.0824605035433	0.242100732895	0.41839999
C	0.927620707379	0.093781025659	0.260173110088	0.41839999
C	0.952472818313	0.473419549268	0.257744550784	0.41839999
C	0.749362184436	0.0798459898769	0.445241418223	0.41839999
C	0.749949720118	0.0919272255872	0.0685106544401	0.41839999
C	0.765470570264	0.468027159734	0.0624952729122	0.41839999
C	0.750942543565	0.467656803899	0.444600047734	0.41839999
C	0.706883849041	0.4774869535	0.341208937173	-0.191
C	0.802583075281	0.0774830246829	0.346095399994	-0.191
C	0.836999382902	0.495228125573	0.148396003432	-0.191
C	0.684405950613	0.084311057761	0.164336949708	-0.191
C	0.851629721041	0.201262509769	0.448917087792	-0.191
C	0.843862058472	0.343347446156	0.0522268510286	-0.191
C	0.667918496459	0.336037177489	0.455406796494	-0.191
C	0.657542704439	0.218714916972	0.0590954380715	-0.191
C	0.96099657736	0.377203513704	0.179387664396	-0.191
C	0.557849152682	0.373960095196	0.337470699949	-0.191
C	0.949628338249	0.189061648954	0.305698291909	-0.191
C	0.5449130315	0.187937883613	0.183278485179	-0.191
C	0.94907338347	0.220672332844	0.328925930845	-0.191
C	0.557761018195	0.343409002385	0.360883144809	-0.191
C	0.956388802605	0.34370745708	0.158176747982	-0.191
C	0.550030145075	0.220957990128	0.161974182618	-0.191
C	0.689952475309	0.367358761203	0.460224783202	-0.191
C	0.816402279532	0.372363958443	0.0497914287594	-0.191
C	0.824330448762	0.173516511785	0.450607133847	-0.191
C	0.679214932758	0.185755980691	0.0560238314451	-0.191
C	0.8662108376	0.492941082923	0.176039555216	-0.191
C	0.833310174079	0.0765894827671	0.321171701887	-0.191
C	0.680546630261	0.473777970464	0.311797366536	-0.191
C	0.653113658888	0.0801155218181	0.188645346975	-0.191
C	0.93473895033	0.231968401221	0.0929829370274	-0.191
C	0.563634607815	0.331682987662	0.101268912848	-0.191
C	0.58634496484	0.225097985747	0.410140301622	-0.191
C	0.945830908447	0.330333957411	0.409200964589	-0.191
C	0.608578971854	0.458802795817	0.207447681718	-0.191
C	0.584254767029	0.0816830726182	0.300203946894	-0.191
C	0.903589131298	0.0885295241629	0.203677228499	-0.191
C	0.906862764608	0.458092793082	0.300412455475	-0.191
C	0.699642797229	0.117774666523	0.441035801592	-0.191
C	0.80587804872	0.120180985096	0.0677103328344	-0.191
C	0.707503902507	0.44351538889	0.0621329099259	-0.191
C	0.80752956419	0.440004263438	0.444442322719	-0.191
C	0.709230307628	0.465732159304	0.0964233298098	-0.191
C	0.806712909718	0.0943843884464	0.0979229449569	-0.191
C	0.691738700321	0.0883782376672	0.41687553858	-0.191
C	0.80837722715	0.468837263679	0.417233695881	-0.191
C	0.932131329259	0.116166654224	0.199608452521	-0.191
C	0.552954114307	0.107497667662	0.301069420889	-0.191
C	0.581734454547	0.429540110451	0.209399724867	-0.191
C	0.931529931446	0.427191740486	0.296412446643	-0.191
C	0.609188300999	0.225649495161	0.44241815137	-0.191
C	0.592714806484	0.332695024029	0.0737386225828	-0.191
C	0.904895952487	0.235232790608	0.0670145719661	-0.191
C	0.923593575764	0.333477897424	0.442582191658	-0.191
C	0.691112668625	0.0713958201262	0.301013187534	-0.57260001
C	0.800987214086	0.499320013005	0.299398843647	-0.57260001
C	0.795167520474	0.0696467233535	0.214212225174	-0.57260001
C	0.711101768863	0.488637777027	0.205014658748	-0.57260001
C	0.80135540995	0.234006494604	0.0441194416095	-0.57260001
C	0.818690950219	0.337070746361	0.450065258113	-0.57260001
C	0.695414242634	0.342999867316	0.0568852357102	-0.57260001
C	0.718409947146	0.231464304813	0.466876114258	-0.57260001
C	0.551178841069	0.325735336546	0.207389226607	-0.57260001
C	0.972812042687	0.315594940659	0.281808622026	-0.57260001
C	0.551521912738	0.20824051912	0.296611216699	-0.57260001
C	0.955559155386	0.231602539717	0.19987847666	-0.57260001
C	0.951704609881	0.32857554018	0.0566002759418	-0.57260001
C	0.537514462754	0.246711964961	0.0422239923263	-0.57260001
C	0.556716111559	0.315276331875	0.457836010395	-0.57260001
C	0.94411578933	0.229629226809	0.439163527838	-0.57260001
C	0.551721788111	0.487929874189	0.293712300602	-0.57260001
C	0.540415014805	0.0739546775692	0.20152788705	-0.57260001
C	0.939114723745	0.0851735416223	0.30026781982	-0.57260001
C	0.971650598728	0.489304662401	0.221013974314	-0.57260001
C	0.786655157981	0.0637535401251	0.45858195546	-0.57260001
C	0.709130150778	0.0786688941523	0.0585498632656	-0.57260001
C	0.801697614016	0.485525331698	0.0420981132178	-0.57260001
C	0.7139312069	0.483132724558	0.461248758727	-0.57260001
H	0.715276435388	0.455975929434	0.355091631796	0.1536
H	0.796604256656	0.098355597703	0.364886065386	0.1536
H	0.834880794422	0.481974978285	0.123877962897	0.1536
H	0.689424008083	0.107536758865	0.148953517131	0.1536
H	0.868904841461	0.204418137206	0.428350822862	0.1536
H	0.85695329986	0.336330017745	0.0734630535054	0.1536
H	0.650455479279	0.32870179461	0.433294057966	0.1536
H	0.638627208414	0.22567696118	0.0769875246388	0.1536
H	0.944318287991	0.397437119378	0.18022586832	0.1536
H	0.577070290162	0.394036615109	0.334602516918	0.1536
H	0.927784578627	0.174188043278	0.296291982077	0.1536
H	0.560786650661	0.167812389532	0.184624999146	0.1536
H	0.925847324563	0.233036643568	0.338694358345	0.1536
H	0.574177837717	0.339752741973	0.38286737048	0.1536
H	0.935431963149	0.33557109935	0.143241219381	0.1536
H	0.570275656023	0.228194141952	0.149188914968	0.1536
H	0.691396656551	0.385307817405	0.44115773463	0.1536
H	0.805765398135	0.385418969115	0.0746510787745	0.1536
H	0.821296695767	0.152650252495	0.432312747776	0.1536
H	0.679641155545	0.165456622173	0.0761344223972	0.1536
H	0.888643383638	0.477476398215	0.176395136164	0.1536
H	0.851935652106	0.0959937438348	0.318771990829	0.1536
H	0.66637168774	0.452017128914	0.306025284925	0.1536
H	0.634295800533	0.0992859822604	0.191237138395	0.1536
H	0.942739296693	0.21141334722	0.108627457608	0.1536
H	0.559240133748	0.35169282921	0.119272086553	0.1536
H	0.581457219331	0.203173293276	0.391716478217	0.1536
H	0.955300638455	0.349618255445	0.393213862314	0.1536
H	0.627266544093	0.463878804632	0.187069533952	0.1536
H	0.60396725649	0.0769057128944	0.317173317972	0.1536
H	0.887966682182	0.0821197463337	0.182425836864	0.1536
H	0.886656585972	0.457802074758	0.31815172051	0.1536
H	0.682775510363	0.136104643262	0.446002679435	0.1536
H	0.825182382619	0.135690083696	0.0572340874941	0.1536
H	0.685436968371	0.428099597844	0.0551556183029	0.1536
H	0.829493380993	0.422693146879	0.449579142107	0.1536
H	0.689005475175	0.469606317214	0.116452105212	0.1536
H	0.829386360703	0.0901099202715	0.115684914227	0.1536
H	0.669514101937	0.0884432879034	0.401952336959	0.1536
H	0.826771131294	0.474238508148	0.399490225235	0.1536
H	0.941236270973	0.130626759538	0.178292215296	0.1536
H	0.54387235153	0.123033779843	0.319047353199	0.1536
H	0.574891251686	0.41030658181	0.191889844118	0.1536
H	0.929883648957	0.404192502272	0.30803803193	0.1536
H	0.627190445346	0.205123331448	0.448753336395	0.1536
H	0.611604901556	0.349943354599	0.0693050260726	0.1536
H	0.884517487602	0.213986110913	0.0605455281977	0.1536
H	0.917827889126	0.35652741499	0.452913590346	0.1536
H	0.710390566625	0.081104809127	0.318076383126	0.1481
H	0.821572400513	0.488514692298	0.281061316113	0.1481
H	0.83120949879	0.358363745136	0.435804763912	0.1481
H	0.726595574727	0.258937603142	0.469462805556	0.1481
H	0.980704178466	0.29582853429	0.262829221776	0.1481
H	0.566938003922	0.21739112198	0.318067552537	0.1481
H	0.545504986067	0.306621848975	0.227328070117	0.1481
H	0.961066455035	0.256033443407	0.214350959309	0.1481
H	0.721119995707	0.353072716267	0.0656964827585	0.1481
H	0.790387958788	0.260112230225	0.0382143092847	0.1481
H	0.766131416409	0.0717018924848	0.217819331382	0.1481
H	0.691057702108	0.470268176312	0.202474271538	0.1481
H	0.51815667055	0.233370919325	0.0597655463278	0.1481
H	0.546365576339	0.315053083457	0.48465555811	0.1481
H	0.51293576917	0.0722960632727	0.197281963949	0.1481
H	0.920576593449	0.0679679871958	0.312615793912	0.1481
H	0.779258425696	0.0470674565974	0.479762095407	0.1481
H	0.694075300821	0.0992645840919	0.0480052593075	0.1481
H	0.799238995408	0.483855553349	0.0135778784979	0.1481
H	0.719006450081	0.489853587786	0.488394168345	0.1481
H	0.570586920472	0.495762685985	0.313626418004	0.1481
H	0.952817446631	0.505663510277	0.206718636116	0.1481
H	0.942769139837	0.334526559439	0.0310127812707	0.1481
H	0.971338578726	0.223312117026	0.440927424879	0.1481
H	0.667485262396	0.0854120574289	0.299170363656	0.1481
H	0.776597544351	0.511075139606	0.289384506804	0.1481
H	0.789749755259	0.339304479778	0.447870651006	0.1481
H	0.698279152836	0.22941720616	0.446106196679	0.1481
H	0.96013496168	0.337178748711	0.266957260047	0.1481
H	0.565393250418	0.185531286734	0.290700331002	0.1481
H	0.559898905398	0.310449362046	0.186075595243	0.1481
H	0.938327489495	0.237780111575	0.178310365146	0.1481
H	0.673471010294	0.356981839615	0.0685409462664	0.1481
H	0.782650012652	0.215435935762	0.0544214861813	0.1481
H	0.80726356379	0.0714318359891	0.23830809361	0.1481
H	0.73493224298	0.481293754096	0.19071529027	0.1481
H	0.557673065205	0.227794477917	0.0353472715699	0.1481
H	0.537742928363	0.324175915342	0.438801836374	0.1481
H	0.552448269308	0.0503611675825	0.193048267644	0.1481
H	0.941701693409	0.108136472803	0.315126268102	0.1481
H	0.804968828419	0.0855695229652	0.466013088933	0.1481
H	0.694222566662	0.0703047479437	0.0819517718094	0.1481
H	0.82658978586	0.476419154888	0.049672702649	0.1481
H	0.706902066115	0.505206595202	0.446887615428	0.1481
H	0.538047998076	0.509521466202	0.283711377642	0.1481
H	0.99036811481	0.507946312419	0.226861886724	0.1481
H	0.939230879036	0.345200463084	0.0751714650196	0.1481
H	0.930546706129	0.221336745456	0.461371023393	0.1481
H	0.704013757146	0.0690221321047	0.272870624581	0.1481
H	0.794303005058	0.479741765137	0.317757846629	0.1481
H	0.832591035985	0.313737148749	0.44095394433	0.1481
H	0.74050359192	0.214581321605	0.458961506845	0.1481
H	0.952729906391	0.301623479404	0.299296604952	0.1481
H	0.553270498101	0.229414067504	0.276131795453	0.1481
H	0.568003279893	0.345245220239	0.218054680476	0.1481
H	0.941927371718	0.21416072281	0.217899136303	0.1481
H	0.691872921247	0.315926756403	0.0618653021855	0.1481
H	0.822094765863	0.238451961788	0.0648123344286	0.1481
H	0.801114672043	0.0866750300657	0.192544636969	0.1481
H	0.716519071381	0.490894633855	0.233490479638	0.1481
H	0.524005549823	0.255597674436	0.0204792539534	0.1481
H	0.574474679547	0.336978026818	0.455581006459	0.1481
H	0.550006283853	0.0927342124764	0.184445409081	0.1481
H	0.961482706477	0.0697984083824	0.299180316911	0.1481
H	0.800880505935	0.0467197333896	0.440584988148	0.1481
H	0.711982174019	0.056962024036	0.0405967738525	0.1481
H	0.804129503131	0.511802676645	0.0505161279395	0.1481
H	0.691042758642	0.464812210645	0.462021592737	0.1481
H	0.533120952489	0.470695465561	0.304408827044	0.1481
H	0.982026632631	0.471291788485	0.204882533883	0.1481
H	0.97978732254	0.3287879832	0.0559964785496	0.1481
H	0.93635011553	0.218641600297	0.413588345598	0.1481
N	0.712774679483	0.516247422751	0.349878440905	-0.28
N	0.782245401988	0.0448527528145	0.343020269449	-0.28
N	0.806756127187	0.520595228005	0.160982404789	-0.28
N	0.702392122696	0.0470589175132	0.162130039343	-0.28
N	0.849815076678	0.224370236878	0.481409122566	-0.28
N	0.84417681236	0.327703731407	0.0140657168856	-0.28
N	0.674309512218	0.313734435726	0.489581575523	-0.28
N	0.666126584351	0.241449120581	0.0263139935169	-0.28
N	0.995279775428	0.371859413328	0.201490803086	-0.28
N	0.528936461106	0.369429006237	0.309073089135	-0.28
N	0.9853799233	0.187041420697	0.290117085993	-0.28
N	0.507963326288	0.186765976946	0.19925255394	-0.28
N	0.986021296636	0.237199284873	0.329739479541	-0.28
N	0.527220800909	0.319278595264	0.350070574125	-0.28
N	0.990481432963	0.320434651029	0.161962397608	-0.28
N	0.515796310271	0.24200138901	0.167466780334	-0.28
N	0.713012234643	0.364330061373	0.492359796252	-0.28
N	0.796006690376	0.370787700529	0.0155391026954	-0.28
N	0.806395246915	0.175842835527	0.486632106829	-0.28
N	0.704365481305	0.188252377573	0.0243019957396	-0.28
N	0.853385408881	0.515076999071	0.207439640173	-0.28
N	0.833866877932	0.0439464626817	0.300429337522	-0.28
N	0.669614783798	0.510885674336	0.299070063267	-0.28
N	0.652134041664	0.0443659458743	0.204530825912	-0.28
N	0.958007541999	0.266015477068	0.0915467605337	-0.28
N	0.539875230514	0.300187740406	0.0943024799165	-0.28
N	0.563508181954	0.257101638118	0.412158151538	-0.28
N	0.95907450481	0.292288493903	0.403625641839	-0.28
N	0.603966293499	0.482818260979	0.241639046313	-0.28
N	0.585300320831	0.0659328849008	0.261980904391	-0.28
N	0.899194502632	0.0735423225534	0.241200660476	-0.28
N	0.919875822854	0.486874436907	0.273496082891	-0.28
N	0.736391021093	0.11374125423	0.456950112967	-0.28
N	0.77094709059	0.119589414045	0.049884038659	-0.28
N	0.742041467666	0.442890454286	0.0430401719659	-0.28
N	0.771706213032	0.43930355641	0.462736663834	-0.28
N	0.746296051678	0.48357484114	0.0943304165196	-0.28
N	0.771284573535	0.0751335467943	0.097818731757	-0.28
N	0.724841369446	0.0635825673917	0.417248731465	-0.28
N	0.774093664587	0.48956074349	0.419567264814	-0.28
N	0.947949094967	0.118682966953	0.237104255758	-0.28
N	0.535606899625	0.108841822054	0.264530845691	-0.28
N	0.561680864153	0.435521244602	0.243407851947	-0.28
N	0.959390799137	0.436705708409	0.268170977602	-0.28
N	0.601886911969	0.257266202203	0.466114487913	-0.28
N	0.587284512354	0.299040712797	0.0509423194754	-0.28
N	0.90632520359	0.270732315853	0.0489255926299	-0.28
N	0.918428117185	0.295171966819	0.454747753931	-0.28
Zn	0.758475143739	0.534274655975	0.383692990661	0.68940001
Zn	0.751525366022	0.0324767564348	0.131535334038	0.68940001
Zn	0.888724198497	0.280219905559	0.996535018232	0.68940001
Zn	0.638962944002	0.273944123179	0.508428354912	0.68940001
Zn	1.00727690897	0.403563559091	0.251099191524	0.68940001
Zn	0.494717834184	0.147164985947	0.245836577623	0.68940001
Zn	0.514534706402	0.265269339072	0.375740576203	0.68940001
Zn	0.500494344159	0.283281432346	0.132565199828	0.68940001
Zn	0.767742650961	0.402670799608	0.99896574677	0.68940001
Zn	0.759043114341	0.145241307822	0.501033281391	0.68940001
Zn	0.872900174237	0.0234288451452	0.260572324006	0.68940001
Zn	0.621229591201	0.025485689978	0.248304799218	0.68940001
C	0.692183144896	0.0246340888974	0.822154335195	0.41839999
C	0.828757422314	0.519504033343	0.806692337162	0.41839999
C	0.803479633012	0.0252263306772	0.705072166657	0.41839999
C	0.700731950511	0.519257879968	0.68765384793	0.41839999
C	0.82316018422	0.206316074162	0.505217729431	0.41839999
C	0.826459936829	0.339626430651	0.993544207622	0.41839999
C	0.701042114691	0.333913023838	0.510308731209	0.41839999
C	0.691346906961	0.220029326927	0.00502918825128	0.41839999
C	0.509234475256	0.327841884151	0.707031587633	0.41839999
C	1.00387628871	0.330154830185	0.804409867207	0.41839999
C	0.509427999306	0.215747026143	0.819517025764	0.41839999
C	0.990914020615	0.217068859505	0.683351866955	0.41839999
C	0.943687707589	0.283720710469	0.54975057757	0.41839999
C	0.576099423279	0.272389951712	0.570855986779	0.41839999
C	0.572052374213	0.282811510892	0.947404437927	0.41839999
C	0.954125567503	0.278686137385	0.935968955498	0.41839999
C	0.574747255568	0.459000091284	0.756125132804	0.41839999
C	0.567244215603	0.0866618901957	0.759852885574	0.41839999
C	0.935985452645	0.0894290844644	0.757578444552	0.41839999
C	0.952588019308	0.466512286184	0.740409786443	0.41839999
C	0.762498310267	0.08713132509	0.95329103953	0.41839999
C	0.746997640893	0.0823480829749	0.566997625246	0.41839999
C	0.765462095585	0.464333037452	0.564754682706	0.41839999
C	0.759956458092	0.461114907127	0.93255235786	0.41839999
C	0.689513163058	0.479666020984	0.842545125857	-0.191
C	0.821467343161	0.0756369310065	0.85953540802	-0.191
C	0.825307526794	0.473281406872	0.654252589961	-0.191
C	0.681076177639	0.0728463315748	0.665963832359	-0.191
C	0.85718066554	0.206500454203	0.953778800028	-0.191
C	0.846832544396	0.331105988696	0.551169339497	-0.191
C	0.678745860311	0.332758934311	0.951448897652	-0.191
C	0.670043425629	0.210328409255	0.556982854331	-0.191
C	0.952475191383	0.365290270304	0.682138467635	-0.191
C	0.556409160835	0.369220209659	0.83316289152	-0.191
C	0.956987872798	0.17905233406	0.823037545302	-0.191
C	0.559332273032	0.17678804006	0.689028851322	-0.191
C	0.962047772346	0.206364415857	0.851168298112	-0.191
C	0.555214079463	0.340460974102	0.862968796334	-0.191
C	0.952743646346	0.33798055971	0.652450299002	-0.191
C	0.558887678838	0.205158283495	0.661589162202	-0.191
C	0.70844253333	0.359385043028	0.950847001984	-0.191
C	0.823383917055	0.363966943429	0.554385462822	-0.191
C	0.827818747819	0.178847341504	0.955106288117	-0.191
C	0.696164295081	0.182938229393	0.55536527202	-0.191
C	0.849462588604	0.474029876179	0.686299719784	-0.191
C	0.845809494905	0.0733282687583	0.8293533317	-0.191
C	0.663160220427	0.480363715461	0.813691269211	-0.191
C	0.65545759116	0.0749044669423	0.696119651323	-0.191
C	0.945832716396	0.22366557257	0.574514316221	-0.191
C	0.587640255515	0.319246243552	0.611578577939	-0.191
C	0.574693703033	0.226833087877	0.919554915208	-0.191
C	0.948111622548	0.330624359365	0.898478794225	-0.191
C	0.618465502298	0.435406235742	0.719636847826	-0.191
C	0.60065182938	0.0877637439185	0.814973267185	-0.191
C	0.894155752564	0.100495508697	0.710472198386	-0.191
C	0.912267608187	0.460414473691	0.789784243883	-0.191
C	0.708782980831	0.121633703848	0.95455080173	-0.191
C	0.801927808937	0.111974330131	0.571916703441	-0.191
C	0.707811214417	0.433734678065	0.568192179481	-0.191
C	0.81684801037	0.433508692213	0.929336172026	-0.191
C	0.706551511377	0.466536657984	0.590434063345	-0.191
C	0.799230495231	0.0865373079966	0.601597481308	-0.191
C	0.703436744615	0.0896017615962	0.931042954207	-0.191
C	0.816692876082	0.463433584078	0.903561778747	-0.191
C	0.925411898338	0.12452423828	0.703479586871	-0.191
C	0.574555272125	0.118487511034	0.81304888573	-0.191
C	0.589005632801	0.410335265421	0.720870385635	-0.191
C	0.934344333073	0.427620603225	0.786746824523	-0.191
C	0.605582775129	0.226972756902	0.945538520934	-0.191
C	0.615397182857	0.317928427806	0.582549990171	-0.191
C	0.914941141457	0.226778111187	0.550711582395	-0.191
C	0.922581780192	0.329974237171	0.927833754301	-0.191
C	0.706291208411	0.0638935128415	0.809886102522	-0.57260001
C	0.813212581983	0.480777125487	0.793652399482	-0.57260001
C	0.790642893479	0.0633211330675	0.715474670257	-0.57260001
C	0.715664029519	0.481724081877	0.704316840468	-0.57260001
C	0.812685267339	0.22184261388	0.543553172811	-0.57260001
C	0.815296355464	0.324403044872	0.951102188847	-0.57260001
C	0.720492017271	0.319649239567	0.547252260868	-0.57260001
C	0.717175203949	0.226555420484	0.966752896663	-0.57260001
C	0.539776589893	0.307388269498	0.732556659364	-0.57260001
C	0.962764991629	0.315993166019	0.79525890537	-0.57260001
C	0.551969503184	0.226293578773	0.812892065695	-0.57260001
C	0.949439022672	0.227972624365	0.69090071163	-0.57260001
C	0.954138454927	0.325964006013	0.542537647019	-0.57260001
C	0.559970032837	0.238012063111	0.549202233372	-0.57260001
C	0.558085591541	0.32146628359	0.962398446812	-0.57260001
C	0.972348699143	0.242333199206	0.957118543806	-0.57260001
C	0.55511805756	0.483111792537	0.787481864174	-0.57260001
C	0.552140434308	0.0737163249881	0.720430731977	-0.57260001
C	0.955581785737	0.0685879319839	0.791523402676	-0.57260001
C	0.968938953727	0.481545326431	0.700706041521	-0.57260001
C	0.802818261431	0.0749463531081	0.957226339884	-0.57260001
C	0.706049301207	0.071495987753	0.554299821036	-0.57260001
C	0.804333554827	0.477854546234	0.549758174689	-0.57260001
C	0.722939819362	0.475590643915	0.948288691315	-0.57260001
H	0.69111593003	0.462116029308	0.863888130001	0.1536
H	0.817604673585	0.0968614115997	0.879763203078	0.1536
H	0.817992428867	0.451152261216	0.638338798602	0.1536
H	0.686289569761	0.0948126081091	0.647486654136	0.1536
H	0.87309157163	0.209625201345	0.931717239353	0.1536
H	0.858411185	0.318563913751	0.573434502881	0.1536
H	0.662078705135	0.325086822326	0.931527538126	0.1536
H	0.649318144683	0.212172857999	0.573508702611	0.1536
H	0.933518399822	0.385621003589	0.686942875987	0.1536
H	0.576436518493	0.388347014549	0.82790120014	0.1536
H	0.938546661595	0.158150499142	0.824299564653	0.1536
H	0.576492974076	0.156166700323	0.69109402582	0.1536
H	0.943004313504	0.208871138775	0.870621286367	0.1536
H	0.574682086218	0.334564656268	0.882249173846	0.1536
H	0.932249553002	0.333703977298	0.63316646396	0.1536
H	0.57770582807	0.207827841574	0.641788526821	0.1536
H	0.718025869522	0.372582694781	0.929267503307	0.1536
H	0.817934746208	0.379949135048	0.5769416979	0.1536
H	0.822132452211	0.158221198068	0.935195315242	0.1536
H	0.69778633371	0.166797189022	0.577026373454	0.1536
H	0.864656155172	0.455497472221	0.695081091863	0.1536
H	0.864726075754	0.0923746920705	0.823085882939	0.1536
H	0.639079372751	0.46473269933	0.812165128908	0.1536
H	0.645718492834	0.0982410602846	0.707473901	0.1536
H	0.952087712674	0.20212354354	0.589948645035	0.1536
H	0.586252078464	0.336238889549	0.632528650846	0.1536
H	0.567573529051	0.205924657046	0.90067466288	0.1536
H	0.952850212711	0.348872229413	0.879442963414	0.1536
H	0.641084590314	0.431105021352	0.704048842238	0.1536
H	0.615479978978	0.078491856668	0.835430471709	0.1536
H	0.873213451219	0.0959124660255	0.692916080256	0.1536
H	0.890334987431	0.463362059475	0.805877570811	0.1536
H	0.691750972971	0.140654978854	0.960777019289	0.1536
H	0.821204745704	0.129570483518	0.568212248296	0.1536
H	0.684034946359	0.416371979518	0.562367555535	0.1536
H	0.837401690575	0.417774090583	0.930619188336	0.1536
H	0.684445528468	0.477272788846	0.603934154689	0.1536
H	0.81664888257	0.0828595291302	0.623183087805	0.1536
H	0.680738300495	0.0834445582209	0.915750791953	0.1536
H	0.8385778817	0.467591413612	0.886755100682	0.1536
H	0.930830385521	0.138376716802	0.681354852853	0.1536
H	0.568664989803	0.135523220869	0.833427035395	0.1536
H	0.589886105318	0.385759802359	0.710427774603	0.1536
H	0.930995269023	0.406129663209	0.803486910915	0.1536
H	0.624986088095	0.209772008339	0.949699862603	0.1536
H	0.636472257826	0.335446247528	0.580954770333	0.1536
H	0.897681810122	0.206696588448	0.543216463875	0.1536
H	0.905062209294	0.349405929614	0.934059272865	0.1536
H	0.682850716923	0.0780953900249	0.804035379483	0.1481
H	0.821549092134	0.473837295095	0.768471181486	0.1481
H	0.822500162184	0.342401484923	0.932722795269	0.1481
H	0.706698952085	0.206882968834	0.950510008739	0.1481
H	0.962230107083	0.293131808353	0.779243883003	0.1481
H	0.565896283415	0.226583106656	0.836624471036	0.1481
H	0.5266681683	0.297952013089	0.756171236745	0.1481
H	0.928999934713	0.213080116155	0.674273921599	0.1481
H	0.720859475646	0.338567728646	0.565510633843	0.1481
H	0.823041161256	0.202400486335	0.563563266623	0.1481
H	0.791092364951	0.0645480247665	0.743148468571	0.1481
H	0.700692280181	0.472561249703	0.726056570275	0.1481
H	0.581744319543	0.220558361843	0.545168312067	0.1481
H	0.562611581421	0.342918342826	0.942585329831	0.1481
H	0.562881081716	0.0479754653908	0.713724253026	0.1481
H	0.956123585899	0.0844209866853	0.815539022165	0.1481
H	0.802281158628	0.051900075281	0.973040125772	0.1481
H	0.689316482921	0.0668160732605	0.577383960142	0.1481
H	0.81923642219	0.485520681127	0.572194681744	0.1481
H	0.72093678074	0.468074229362	0.973434973589	0.1481
H	0.545041035197	0.506461942024	0.775472348385	0.1481
H	0.970099135852	0.508361541487	0.701761028134	0.1481
H	0.982338717405	0.329900168579	0.544904654361	0.1481
H	1.00098799493	0.243047229641	0.957359810656	0.1481
H	0.720041621383	0.0626586773761	0.785397031826	0.1481
H	0.785980126555	0.478035072289	0.791119002973	0.1481
H	0.786391023458	0.321391870812	0.948998870772	0.1481
H	0.745063715992	0.225297697918	0.966863629601	0.1481
H	0.950681807694	0.337522206839	0.781755676052	0.1481
H	0.565289712214	0.20735409759	0.796720385476	0.1481
H	0.550752053043	0.28483091245	0.719783238947	0.1481
H	0.940751914352	0.223537849618	0.718997007308	0.1481
H	0.707179363907	0.298633423497	0.55845614823	0.1481
H	0.822027422471	0.24680943454	0.546509722285	0.1481
H	0.804806764927	0.081637522042	0.697699619524	0.1481
H	0.717418478994	0.462896155764	0.682684481611	0.1481
H	0.549820903051	0.246866889125	0.523849690948	0.1481
H	0.56803005144	0.330274424812	0.988403885089	0.1481
H	0.557765859836	0.0916748290385	0.699195417543	0.1481
H	0.980818028171	0.0628148311289	0.78615759087	0.1481
H	0.814309529826	0.094390623595	0.973849779026	0.1481
H	0.704582376231	0.048586117043	0.538969169603	0.1481
H	0.801310625549	0.499859252866	0.531189019613	0.1481
H	0.719442602014	0.502690134825	0.943017572738	0.1481
H	0.534778057053	0.470425505218	0.803704057488	0.1481
H	0.995649407923	0.472216169043	0.700690713805	0.1481
H	0.940587268753	0.331061087879	0.519316581067	0.1481
H	0.960898912989	0.236096926379	0.980392598609	0.1481
H	0.722121940159	0.0794712034774	0.828300695146	0.1481
H	0.823957141522	0.463745646214	0.811078267244	0.1481
H	0.825442954256	0.298226837397	0.946758051877	0.1481
H	0.708106077352	0.252368297801	0.957900104275	0.1481
H	0.949365024944	0.310564606027	0.817852748191	0.1481
H	0.554018923728	0.252658061369	0.80063059555	0.1481
H	0.560834618532	0.323648880233	0.741042170187	0.1481
H	0.946168405267	0.25508854903	0.683266549105	0.1481
H	0.74792358423	0.314701371987	0.540577116632	0.1481
H	0.784907607484	0.220109808199	0.549916014792	0.1481
H	0.763666936973	0.0636473906271	0.707253937065	0.1481
H	0.742673908924	0.48701411559	0.713526075458	0.1481
H	0.539621924863	0.224027128217	0.564259361329	0.1481
H	0.52953009345	0.318531945633	0.964520325201	0.1481
H	0.522713193261	0.0722708977615	0.719040488815	0.1481
H	0.940657925323	0.0434019542493	0.792730551461	0.1481
H	0.813894520417	0.0697139425446	0.933468599429	0.1481
H	0.694228701398	0.0906402891591	0.535644457733	0.1481
H	0.818719851823	0.456985133122	0.538903024782	0.1481
H	0.701530921189	0.46200630889	0.935647612208	0.1481
H	0.574518479628	0.493141095343	0.804157090912	0.1481
H	0.955356295045	0.474978873937	0.676808801425	0.1481
H	0.94171160601	0.342200189003	0.563673706004	0.1481
H	0.964511563728	0.219609902453	0.942019199302	0.1481
N	0.7188785997	0.506548918932	0.832275137812	-0.28
N	0.799352551374	0.0403995300264	0.85724072048	-0.28
N	0.803582654067	0.507477048095	0.657385028889	-0.28
N	0.699409119746	0.0365053486536	0.664258733044	-0.28
N	0.855465878739	0.231771150259	0.985189113401	-0.28
N	0.848001292578	0.316863526376	0.513688806968	-0.28
N	0.673650241068	0.320259841766	0.990941638241	-0.28
N	0.672272747337	0.231542219243	0.523744575994	-0.28
N	0.987821896828	0.361722280227	0.702256906596	-0.28
N	0.522502570647	0.365332880906	0.812410959701	-0.28
N	0.985620640764	0.186069619431	0.794497154212	-0.28
N	0.527666441196	0.182537238785	0.710794065308	-0.28
N	0.989946707578	0.232878685861	0.838274445328	-0.28
N	0.519920484286	0.322970688232	0.862063124144	-0.28
N	0.986955188867	0.318785432672	0.654081738256	-0.28
N	0.527636302062	0.227240953724	0.664448881761	-0.28
N	0.72360552472	0.363401859667	0.986832221132	-0.28
N	0.808871145765	0.370396660213	0.516458737206	-0.28
N	0.808970565238	0.183782888962	0.989928999703	-0.28
N	0.719968686563	0.186771288463	0.521905013166	-0.28
N	0.849756219686	0.509430895485	0.703505936879	-0.28
N	0.839795673637	0.0390285196697	0.806333723885	-0.28
N	0.672055601768	0.508014850116	0.786298770638	-0.28
N	0.655067334403	0.0406669453311	0.713946395359	-0.28
N	0.963453235693	0.260526076327	0.576203579637	-0.28
N	0.560632874563	0.289660611427	0.603402615139	-0.28
N	0.553323121156	0.260836612127	0.920530424411	-0.28
N	0.96734497882	0.295143886065	0.902372895542	-0.28
N	0.60882711606	0.469415412084	0.737949331881	-0.28
N	0.595976270362	0.0687555676724	0.779422518664	-0.28
N	0.90063202793	0.0780745251963	0.743406239582	-0.28
N	0.922973745163	0.485179579021	0.758698412638	-0.28
N	0.745825749425	0.117896736437	0.969580305582	-0.28
N	0.769444778317	0.110754503808	0.548680382227	-0.28
N	0.745327302671	0.433506666549	0.549838291911	-0.28
N	0.781400877134	0.432166700423	0.948379183635	-0.28
N	0.745120185191	0.482940982436	0.591605166196	-0.28
N	0.765316749442	0.0655496710959	0.598491423861	-0.28
N	0.737319240269	0.068467802777	0.930410183807	-0.28
N	0.780688960806	0.481106944155	0.904643228853	-0.28
N	0.953500582555	0.115829032474	0.732422755229	-0.28
N	0.55570999662	0.117376389827	0.779152743019	-0.28
N	0.561312905393	0.423831424488	0.746749293728	-0.28
N	0.962090379139	0.431684971909	0.757385131904	-0.28
N	0.60216968224	0.262916082999	0.964832917478	-0.28
N	0.608119240372	0.289679907573	0.55643139439	-0.28
N	0.914532874169	0.263465071968	0.534416548419	-0.28
N	0.926009510123	0.29847575114	0.952814424771	-0.28
Zn	0.762751382052	0.52563976335	0.867959445084	0.68940001
Zn	0.749364636959	0.0208808878909	0.635540853793	0.68940001
Zn	0.878202771979	0.275339268141	0.493299667272	0.68940001
Zn	0.627830905571	0.285599482902	0.00982176090109	0.68940001
Zn	1.00574622701	0.395120000389	0.746903000687	0.68940001
Zn	0.510121097103	0.152897016206	0.760581446378	0.68940001
Zn	0.506968786866	0.273065402986	0.887971994672	0.68940001
Zn	0.513498332552	0.276818808939	0.632936970043	0.68940001
Zn	0.756863951887	0.397270241602	0.505615690125	0.68940001
Zn	0.75546918198	0.154474332843	0.0102070516071	0.68940001
Zn	0.8704533451	0.0270909196773	0.759112811496	0.68940001
Zn	0.626262666269	0.0238067887501	0.762733498897	0.68940001
C	0.692762019466	0.534203539243	0.322581585771	0.41839999
C	0.803182097753	0.0243568590274	0.314400868124	0.41839999
C	0.819958693973	0.532263973483	0.19553682966	0.41839999
C	0.682408102417	0.024933704884	0.187895417026	0.41839999
C	0.818627198741	0.723232412435	0.0021284218274	0.41839999
C	0.834379203324	0.835860647054	0.499600617605	0.41839999
C	0.692027036699	0.845256184549	0.00847710024732	0.41839999
C	0.702280722862	0.724340333286	0.502639966426	0.41839999
C	0.514319753716	0.842405816461	0.178800707147	0.41839999
C	1.01119142038	0.838070668838	0.312521255265	0.41839999
C	0.515816288546	0.717115828238	0.310397033848	0.41839999
C	0.999493124709	0.724129291647	0.193611998092	0.41839999
C	0.945621153672	0.786357705436	0.0576632108389	0.41839999
C	0.565493353519	0.774055473988	0.052064796005	0.41839999
C	0.582497371452	0.788391387525	0.431351294156	0.41839999
C	0.960812489568	0.769315790386	0.448517548171	0.41839999
C	0.572325157956	0.962925405954	0.2517327483	0.41839999
C	0.575329309514	0.600281161527	0.244793770614	0.41839999
C	0.941799071409	0.597551051808	0.264609364378	0.41839999
C	0.949414254046	0.966366032531	0.25567307243	0.41839999
C	0.759992913636	0.593130200665	0.453316104691	0.41839999
C	0.755712092073	0.589781126837	0.0593359500158	0.41839999
C	0.76083630786	0.974888944876	0.0686700224593	0.41839999
C	0.761462245422	0.967311411195	0.445544476708	0.41839999
C	0.690871185005	0.976991351291	0.344929091169	-0.191
C	0.836513895545	0.573476447389	0.363055769181	-0.191
C	0.823465923453	0.97653090309	0.167856468205	-0.191
C	0.697364961808	0.58180764541	0.15964798836	-0.191
C	0.857790189289	0.701976821309	0.466073469914	-0.191
C	0.853628656873	0.846646021527	0.0524314406515	-0.191
C	0.672491726475	0.853436592044	0.45100986946	-0.191
C	0.654216717321	0.708462797748	0.0350894403818	-0.191
C	0.953424206835	0.873597303567	0.195087334674	-0.191
C	0.566356994594	0.869567696999	0.305640800611	-0.191
C	0.962657017297	0.690803975874	0.312592919231	-0.191
C	0.557678226394	0.686264219091	0.178907151251	-0.191
C	0.966660011471	0.711551884899	0.345218910875	-0.191
C	0.565313767022	0.844065044137	0.336374004117	-0.191
C	0.950728125694	0.843274915124	0.168965285083	-0.191
C	0.557350207143	0.708315910399	0.146093554369	-0.191
C	0.70227367379	0.878482028677	0.451540745694	-0.191
C	0.826710921589	0.875563816281	0.0552056152651	-0.191
C	0.825985190021	0.679103688807	0.464343085588	-0.191
C	0.680177650884	0.67912777823	0.0327271588005	-0.191
C	0.852375576851	0.974725799817	0.194812257212	-0.191
C	0.860563329557	0.576219686508	0.331627619134	-0.191
C	0.663788813915	0.975709399024	0.316721781103	-0.191
C	0.674894741944	0.583875262066	0.19389399835	-0.191
C	0.939078633899	0.731253360819	0.0873172863562	-0.191
C	0.581080498524	0.818670887462	0.0958280670568	-0.191
C	0.589230270447	0.731725504619	0.408612066059	-0.191
C	0.96352887173	0.829018400482	0.428234004128	-0.191
C	0.610614505859	0.953863871908	0.203738407913	-0.191
C	0.591032923895	0.588758516252	0.304120434239	-0.191
C	0.902327734131	0.604411395143	0.212603138925	-0.191
C	0.923697988035	0.959219040698	0.314815307663	-0.191
C	0.704600851394	0.621772678073	0.449107796784	-0.191
C	0.805425990538	0.627974914789	0.0654314876032	-0.191
C	0.703975506734	0.944874601008	0.071482521356	-0.191
C	0.814509790404	0.936644111895	0.427406438603	-0.191
C	0.708253522059	0.972581046735	0.0998186223683	-0.191
C	0.810780261739	0.598640503636	0.0930399245371	-0.191
C	0.705422209455	0.595810300682	0.421349971191	-0.191
C	0.809080904181	0.965025366107	0.403059587208	-0.191
C	0.927125593465	0.633415979997	0.213052176393	-0.191
C	0.561206151788	0.617043125738	0.302913643709	-0.191
C	0.57846057161	0.931181621157	0.198675837091	-0.191
C	0.950902882935	0.930145071341	0.310374525556	-0.191
C	0.619301436648	0.734883577974	0.434503546723	-0.191
C	0.603040368945	0.824239468675	0.06324078623	-0.191
C	0.914188553748	0.732317204378	0.0561537158348	-0.191
C	0.931571582727	0.826153738944	0.449227432105	-0.191
C	0.700077398993	0.577050738865	0.313632995564	-0.57260001
C	0.803928145506	0.986902113781	0.298139127222	-0.57260001
C	0.801831609215	0.566049896248	0.21812970163	-0.57260001
C	0.704216670324	0.985590261571	0.203224894736	-0.57260001
C	0.798748954231	0.738972292237	0.0368137853018	-0.57260001
C	0.829101490865	0.829451820484	0.455602113317	-0.57260001
C	0.702412653135	0.835177969778	0.0496087002741	-0.57260001
C	0.718670286724	0.736468326462	0.466204850563	-0.57260001
C	0.550321998527	0.825835691581	0.198724480257	-0.57260001
C	0.972285881602	0.822242925791	0.301006890244	-0.57260001
C	0.558111386243	0.726924498423	0.296837727944	-0.57260001
C	0.962166861097	0.738415388412	0.214040540865	-0.57260001
C	0.964255879301	0.824307182783	0.0437272452107	-0.57260001
C	0.549320588616	0.741378155815	0.0302925899915	-0.57260001
C	0.568054268253	0.827789993662	0.442375541986	-0.57260001
C	0.975067504486	0.730509588929	0.465909374633	-0.57260001
C	0.556400538009	0.975223059089	0.289689844766	-0.57260001
C	0.570445017703	0.592673954734	0.201294326836	-0.57260001
C	0.960678584375	0.583843561201	0.301492401578	-0.57260001
C	0.964227607181	0.987234660561	0.220034912077	-0.57260001
C	0.79943493207	0.582514614395	0.46619885128	-0.57260001
C	0.718502966068	0.57290811617	0.0438336902332	-0.57260001
C	0.802354998986	0.985332715398	0.0546339258897	-0.57260001
C	0.727266385866	0.981868702344	0.468494156478	-0.57260001
H	0.692158401842	0.95656714811	0.36566098058	0.1536
H	0.840066381404	0.589370467191	0.383079136958	0.1536
H	0.818250026339	0.95611578795	0.148107178605	0.1536
H	0.703989204306	0.602080311813	0.141941055413	0.1536
H	0.87773103424	0.702693269069	0.446506947278	0.1536
H	0.875194441596	0.841954206094	0.0687828855211	0.1536
H	0.653516542655	0.851105642442	0.430383735924	0.1536
H	0.632990397461	0.707310769618	0.0548234188183	0.1536
H	0.933754038632	0.891229868386	0.201648756292	0.1536
H	0.58722085236	0.88778525889	0.304225316517	0.1536
H	0.942949812871	0.674293955129	0.305711461141	0.1536
H	0.579372107874	0.671491476357	0.185346025922	0.1536
H	0.95057987169	0.709556460241	0.367381299405	0.1536
H	0.583164522498	0.843388071377	0.356639541986	0.1536
H	0.929339437544	0.835120556311	0.153532174088	0.1536
H	0.575828395887	0.70981688592	0.125086435023	0.1536
H	0.706266555801	0.898054209565	0.432890393291	0.1536
H	0.826248307081	0.895243980221	0.0739390080184	0.1536
H	0.821487344341	0.662440764966	0.443968738146	0.1536
H	0.678039240967	0.655829736782	0.046915881409	0.1536
H	0.869981474792	0.955073702044	0.198691268279	0.1536
H	0.878614487781	0.595924473259	0.326916455601	0.1536
H	0.646885236848	0.95485809652	0.310824700577	0.1536
H	0.664310140536	0.606187454437	0.204425032441	0.1536
H	0.942837624969	0.708821691247	0.104299965765	0.1536
H	0.582557486479	0.832135336128	0.120526196815	0.1536
H	0.580615092606	0.709989864453	0.396312560587	0.1536
H	0.975090603172	0.850175797439	0.415778942894	0.1536
H	0.631436523538	0.956000126935	0.188648054977	0.1536
H	0.603434234239	0.578780176541	0.326472667814	0.1536
H	0.882018729445	0.599523164117	0.1942383801	0.1536
H	0.906677539363	0.963765030113	0.336086496168	0.1536
H	0.684425005583	0.639273205716	0.455981497796	0.1536
H	0.822817818691	0.648705260658	0.0627236954455	0.1536
H	0.684436781139	0.925103516974	0.0698604627491	0.1536
H	0.835009454434	0.920007170874	0.427932423713	0.1536
H	0.688561678442	0.977095178406	0.117635741884	0.1536
H	0.831896174025	0.597001636515	0.110922086439	0.1536
H	0.686299870433	0.59115117743	0.401672408511	0.1536
H	0.824202485425	0.973525922763	0.382109949335	0.1536
H	0.929226657863	0.654398242277	0.194401026131	0.1536
H	0.551267003213	0.628071054553	0.324903992843	0.1536
H	0.575589590621	0.913997161924	0.178690772202	0.1536
H	0.954689853153	0.907326972923	0.322973036955	0.1536
H	0.637188245044	0.717201152834	0.444523907493	0.1536
H	0.620900005749	0.846006757353	0.0628810401549	0.1536
H	0.896641230594	0.710853107517	0.0483492206076	0.1536
H	0.916083941364	0.847645450906	0.455340222012	0.1536
H	0.727202568375	0.584323976725	0.318395870286	0.1481
H	0.806264468031	0.990657415703	0.268952625624	0.1481
H	0.846450929719	0.84518962321	0.442500858613	0.1481
H	0.706713286495	0.720537403554	0.443901237819	0.1481
H	0.971833865036	0.797714845229	0.287930948984	0.1481
H	0.554018747323	0.746239225222	0.275338324082	0.1481
H	0.57182096518	0.845027378903	0.202228613865	0.1481
H	0.943936438115	0.753591042097	0.197102692097	0.1481
H	0.699285048239	0.858396118012	0.065352669941	0.1481
H	0.818417335933	0.738693336876	0.0597617596056	0.1481
H	0.818484617793	0.567293718738	0.238688717533	0.1481
H	0.695943085109	0.966468560373	0.183493027775	0.1481
H	0.565480855921	0.730505977971	0.00908938851091	0.1481
H	0.581379048064	0.837314211903	0.464787083379	0.1481
H	0.562163037113	0.567907565592	0.19537038245	0.1481
H	0.94049423676	0.567524983535	0.316941025251	0.1481
H	0.799074136195	0.555077137257	0.472899885425	0.1481
H	0.726529994212	0.553769434322	0.0249459183091	0.1481
H	0.805685226011	0.986253761177	0.0255795767936	0.1481
H	0.726736997148	-0.000231761937049	0.48635910124	0.1481
H	0.576679877753	0.978374382194	0.308762848145	0.1481
H	0.983149734367	0.972010976998	0.20533701827	0.1481
H	0.979131754296	0.835699776022	0.0653171788637	0.1481
H	1.00108880084	0.725327673999	0.457915413935	0.1481
H	0.683406839966	0.590432476415	0.330090893689	0.1481
H	0.777707707941	0.981310930809	0.306319626952	0.1481
H	0.803479711189	0.83746457663	0.448363534038	0.1481
H	0.747009498912	0.732624235128	0.465108499837	0.1481
H	0.961215508141	0.841758417732	0.27953367473	0.1481
H	0.574751661731	0.733562461786	0.319509215071	0.1481
H	0.544305627817	0.812513430064	0.223615711052	0.1481
H	0.948958802305	0.715437645706	0.226588338445	0.1481
H	0.688665492384	0.812640150985	0.0586925206413	0.1481
H	0.790150512224	0.765035719488	0.0331337335219	0.1481
H	0.803150287714	0.589621539067	0.202053400919	0.1481
H	0.731030865554	0.980189129926	0.205999791305	0.1481
H	0.525330225396	0.749165889721	0.0146455229787	0.1481
H	0.541208052002	0.826980219862	0.448682756813	0.1481
H	0.595739761167	0.592772073102	0.189709679909	0.1481
H	0.967006434673	0.604289235754	0.32043453116	0.1481
H	0.807428226063	0.595115205845	0.490651926665	0.1481
H	0.703514889478	0.593369924673	0.0321801382631	0.1481
H	0.819639847181	0.962427413228	0.0625562668725	0.1481
H	0.708972640595	0.995846976414	0.451303085048	0.1481
H	0.53478238641	0.000871964361192	0.285824857343	0.1481
H	0.941126412978	0.994902522642	0.204180182302	0.1481
H	0.980786969749	0.820180994716	0.0217881489408	0.1481
H	0.973504797963	0.730830092156	0.493255014394	0.1481
H	0.690387394	0.58688530002	0.288393859669	0.1481
H	0.822304193491	0.966691605606	0.307798214381	0.1481
H	0.831922302266	0.803047311157	0.447373669806	0.1481
H	0.711916557021	0.763942080076	0.462563884985	0.1481
H	0.95231390153	0.824426059688	0.323102474795	0.1481
H	0.569918263609	0.704232661591	0.285239403066	0.1481
H	0.56127901237	0.8070524493	0.179981773302	0.1481
H	0.972538767192	0.757279863019	0.233734444916	0.1481
H	0.730399684067	0.831127945996	0.0517540241021	0.1481
H	0.778568933877	0.720933395031	0.0459208334792	0.1481
H	0.776046445394	0.560551760461	0.227718513792	0.1481
H	0.689577104445	0.982305760304	0.228184278093	0.1481
H	0.544476504569	0.719787021701	0.0482159414737	0.1481
H	0.573077487023	0.846273647803	0.41990949253	0.1481
H	0.550788910107	0.608233549323	0.187258898761	0.1481
H	0.984918206181	0.566552798188	0.29528812399	0.1481
H	0.819905710467	0.585878422728	0.447654962199	0.1481
H	0.706558034063	0.559279288422	0.0668991663564	0.1481
H	0.79941455212	0.00939685024298	0.0632089197445	0.1481
H	0.710211824842	0.963895560006	0.481529604806	0.1481
H	0.533296379953	0.95887666222	0.299348150473	0.1481
H	0.965335387749	0.0115495627776	0.227539769386	0.1481
H	0.946293829612	0.844533212427	0.0397219650348	0.1481
H	0.95992651591	0.709121811728	0.454049259894	0.1481
N	0.701678854674	0.0100786842898	0.340609247772	-0.28
N	0.810260368583	0.544628810609	0.354924697266	-0.28
N	0.788139465901	0.0109339852574	0.170438214545	-0.28
N	0.711388064417	0.545619689955	0.159244834568	-0.28
N	0.856726497092	0.727102162013	0.497128343654	-0.28
N	0.845450394658	0.825409564105	0.018044328143	-0.28
N	0.671909285347	0.833749352584	0.487585616521	-0.28
N	0.665020902587	0.738450674312	0.010210588604	-0.28
N	0.991695449644	0.874050835254	0.207595993488	-0.28
N	0.531768168327	0.865833423988	0.28393231576	-0.28
N	0.993604206755	0.697550605276	0.288006740272	-0.28
N	0.524641840719	0.691143848412	0.20045093358	-0.28
N	0.99900699205	0.734408395798	0.342445344908	-0.28
N	0.535669104287	0.819686800008	0.330131801209	-0.28
N	0.98825447466	0.828078901022	0.163071921931	-0.28
N	0.519847323471	0.724593776095	0.143788820124	-0.28
N	0.723533193259	0.872762469066	0.484786058099	-0.28
N	0.801810311347	0.871365767643	0.0244988468058	-0.28
N	0.80627519848	0.684814788191	0.49921989296	-0.28
N	0.709865699264	0.688453359921	0.00565476273874	-0.28
N	0.838832393783	0.00972525139047	0.215118313708	-0.28
N	0.851166940201	0.549587686693	0.305025579553	-0.28
N	0.651929262775	0.0111483084548	0.297289240623	-0.28
N	0.672022384807	0.549368849715	0.214206983558	-0.28
N	0.963010539424	0.7637804371	0.0852317221481	-0.28
N	0.556212893594	0.788762531936	0.0884888733466	-0.28
N	0.567135284726	0.764743630634	0.405186501281	-0.28
N	0.983751836352	0.792014628109	0.426829793345	-0.28
N	0.605805772431	0.976569624858	0.236062780704	-0.28
N	0.5999624758	0.578230490703	0.266899280234	-0.28
N	0.915217975046	0.57844948787	0.241856925471	-0.28
N	0.925203592415	0.983553128456	0.281667928396	-0.28
N	0.737845987593	0.622394125964	0.471663851414	-0.28
N	0.770983211796	0.62318217122	0.0456455001143	-0.28
N	0.738185694216	0.946220850225	0.0514687990829	-0.28
N	0.785732441262	0.938264871778	0.456233050433	-0.28
N	0.742014998064	0.990105297718	0.0996507782092	-0.28
N	0.7776498805	0.574916733492	0.0902766368477	-0.28
N	0.739768759161	0.574795625983	0.424660363404	-0.28
N	0.777734725661	0.985967906948	0.415245360083	-0.28
N	0.954046581411	0.628829677252	0.243027915019	-0.28
N	0.551298146246	0.62495891814	0.265097952281	-0.28
N	0.554611776301	0.93491115502	0.229816762014	-0.28
N	0.966526247346	0.934156800031	0.273241278595	-0.28
N	0.615653769492	0.772943446076	0.448388074053	-0.28
N	0.590448952749	0.797893971185	0.0349592218831	-0.28
N	0.918559913407	0.766947922399	0.0361395716668	-0.28
N	0.928358057058	0.788017437159	0.461904574082	-0.28
Zn	0.741795977549	0.0240565416059	0.379733122215	0.68940001
Zn	0.759774862409	0.532203079634	0.126141128107	0.68940001
Zn	0.89191578692	0.784306743716	0.995459676916	0.68940001
Zn	0.642765814711	0.786593769142	0.497448804026	0.68940001
Zn	1.01035293721	0.902953707319	0.25427154266	0.68940001
Zn	0.506405961664	0.657995428467	0.246601156189	0.68940001
Zn	0.51924153573	0.781015312593	0.37352847935	0.68940001
Zn	0.507058612239	0.776725254054	0.115324411882	0.68940001
Zn	0.756506788881	0.907778754431	0.00728970750364	0.68940001
Zn	0.758271012985	0.658557201825	0.514564848673	0.68940001
Zn	0.884657848542	0.531364234104	0.256926159437	0.68940001
Zn	0.635488657292	0.53067331394	0.255372364867	0.68940001
C	0.704618239508	0.52506482444	0.799740436288	0.41839999
C	0.813148374548	0.0195108894809	0.82512496811	0.41839999
C	0.822263405731	0.529717460441	0.684075304882	0.41839999
C	0.682512374718	0.0192827833651	0.695620815005	0.41839999
C	0.823515722201	0.714483775033	0.51732613444	0.41839999
C	0.81206928019	0.839942032376	0.00433187541774	0.41839999
C	0.70558678206	0.843362569761	0.5051766459	0.41839999
C	0.711238815964	0.720695854143	0.992174554549	0.41839999
C	0.518986208373	0.837689987424	0.689020534652	0.41839999
C	1.01617575823	0.834265147149	0.806036805225	0.41839999
C	0.518724882033	0.706443966334	0.799455685386	0.41839999
C	0.0234033779968	0.71443448723	0.694545566531	0.41839999
C	0.957695052606	0.773536863436	0.559346620935	0.41839999
C	0.568931390959	0.781958498286	0.553214556616	0.41839999
C	0.584904859515	0.779472173226	0.917728167719	0.41839999
C	0.956129657	0.777907532345	0.936076816881	0.41839999
C	0.565764584516	0.969058350857	0.753975902322	0.41839999
C	0.570154241758	0.576752338275	0.735589151119	0.41839999
C	0.95323352778	0.582792775483	0.747705298022	0.41839999
C	0.951817292025	0.968271848053	0.744570689795	0.41839999
C	0.769993132819	0.589247219665	0.927275164529	0.41839999
C	0.763073196875	0.582876608209	0.560955441477	0.41839999
C	0.776155970608	0.96018887868	0.56761336784	0.41839999
C	0.763514605076	0.964498189017	0.947141498694	0.41839999
C	0.699487010821	0.970644845934	0.853220411382	-0.191
C	0.830914349531	0.57531239123	0.837015825168	-0.191
C	0.819362842697	0.967832994909	0.677333239287	-0.191
C	0.698492474106	0.575990296562	0.657080855055	-0.191
C	0.87237129313	0.709506751275	0.956727736771	-0.191
C	0.845023629465	0.824526438654	0.560682667478	-0.191
C	0.673288231344	0.850649907156	0.951083260549	-0.191
C	0.662720688562	0.718388749233	0.55138262309	-0.191
C	0.965659588086	0.857618416657	0.681921795667	-0.191
C	0.563035826151	0.858000176061	0.805596079999	-0.191
C	0.965835055721	0.684563991742	0.815773959856	-0.191
C	0.561272106084	0.678677292146	0.674350457089	-0.191
C	0.96689647248	0.714719562353	0.84171898082	-0.191
C	0.564036770029	0.828371150931	0.829698806917	-0.191
C	0.964889922544	0.825802293894	0.659164681507	-0.191
C	0.562662914927	0.706944792368	0.647312365221	-0.191
C	0.706673753279	0.873819505558	0.952799869798	-0.191
C	0.826747931964	0.859778240845	0.557281811564	-0.191
C	0.843282771538	0.683552344896	0.950685224358	-0.191
C	0.686271780276	0.687085523019	0.550825297759	-0.191
C	0.846322416547	0.969181323361	0.705263869654	-0.191
C	0.859599483765	0.573326643457	0.809885818006	-0.191
C	0.670773746251	0.971700062569	0.825268190643	-0.191
C	0.664376666093	0.571559932366	0.678880988026	-0.191
C	0.950876819343	0.724942817828	0.598075263948	-0.191
C	0.577019779649	0.832439799653	0.590315456038	-0.191
C	0.579271439861	0.719125549658	0.899465122153	-0.191
C	0.945220457657	0.825830672454	0.895260653666	-0.191
C	0.607035213351	0.956510865126	0.705792975758	-0.191
C	0.60982277639	0.591881915477	0.784570898917	-0.191
C	0.920465628648	0.594184483083	0.693549766194	-0.191
C	0.916082271432	0.953837259624	0.794685897515	-0.191
C	0.712605542631	0.614651248091	0.929843797827	-0.191
C	0.813072681361	0.621025205067	0.572080671697	-0.191
C	0.717199403972	0.93858882515	0.557409361014	-0.191
C	0.822794571403	0.94003206909	0.956500036291	-0.191
C	0.714058258315	0.966535090784	0.584424800342	-0.191
C	0.818381747905	0.587977832145	0.592762892232	-0.191
C	0.710728810043	0.584732723283	0.904568681742	-0.191
C	0.823962646241	0.967588266182	0.927638900812	-0.191
C	0.946894017421	0.62417996573	0.699791213363	-0.191
C	0.57773456836	0.616837627226	0.783496365684	-0.191
C	0.578071695157	0.931244381861	0.702684288203	-0.191
C	0.943235079884	0.926035687456	0.78910222871	-0.191
C	0.609354754445	0.722060129281	0.924276544569	-0.191
C	0.607748260355	0.830069103054	0.56477477024	-0.191
C	0.919932699675	0.72510093483	0.574329667938	-0.191
C	0.916224132811	0.827158866503	0.924035936381	-0.191
C	0.726505483162	0.556458819931	0.776569406481	-0.57260001
C	0.800393502334	0.986140061035	0.808678127487	-0.57260001
C	0.810950761561	0.570732948146	0.692486086453	-0.57260001
C	0.705660824385	0.979579347603	0.706106791499	-0.57260001
C	0.805433673698	0.731162616104	0.552323988127	-0.57260001
C	0.803578701909	0.818442754671	0.966884847888	-0.57260001
C	0.718077962846	0.830118496444	0.545089959193	-0.57260001
C	0.732612975858	0.742680908013	0.962554543018	-0.57260001
C	0.55822394228	0.821316955492	0.702153059135	-0.57260001
C	0.984122857513	0.815625464815	0.786127020959	-0.57260001
C	0.559074614237	0.719980803887	0.783716053324	-0.57260001
C	0.98629620197	0.730662646306	0.712970125694	-0.57260001
C	0.974986976909	0.808126163837	0.540395911281	-0.57260001
C	0.551862065452	0.747627879841	0.535984518713	-0.57260001
C	0.576026227618	0.823254954998	0.922598888015	-0.57260001
C	0.975107838028	0.743184118149	0.956219750823	-0.57260001
C	0.545963914581	0.9825049889	0.791834622227	-0.57260001
C	0.550198706934	0.557527098723	0.700973646463	-0.57260001
C	0.970695940788	0.563615044245	0.784305662429	-0.57260001
C	0.967460716874	0.990405884382	0.707614390892	-0.57260001
C	0.808482475009	0.573275261138	0.94041013389	-0.57260001
C	0.72366652896	0.570678848362	0.545019439062	-0.57260001
C	0.82038180448	0.969128458219	0.564775793087	-0.57260001
C	0.720640518191	0.970722999144	0.951777805578	-0.57260001
H	0.703408842713	0.950729957429	0.87092610426	0.1536
H	0.823778672298	0.595058813054	0.853250597851	0.1536
H	0.811884834353	0.945145570301	0.665504257187	0.1536
H	0.705111329214	0.596452832204	0.639293302009	0.1536
H	0.894392591178	0.710515049475	0.94239819812	0.1536
H	0.856633988932	0.811691526466	0.582891663738	0.1536
H	0.657473630649	0.84958602578	0.928944347268	0.1536
H	0.643589550317	0.725513326853	0.567920684915	0.1536
H	0.945081935849	0.874003139416	0.686689958606	0.1536
H	0.584743841773	0.87382575393	0.800443089535	0.1536
H	0.945399917416	0.670723660614	0.806112814492	0.1536
H	0.579017427715	0.658507394779	0.680742189131	0.1536
H	0.944158211618	0.719036800154	0.857416929102	0.1536
H	0.586635134321	0.820385639036	0.842226436376	0.1536
H	0.94422033029	0.815546463638	0.64265649338	0.1536
H	0.583629884448	0.713250608816	0.631105903406	0.1536
H	0.717650596344	0.891722006524	0.934821043351	0.1536
H	0.818444136833	0.876259148116	0.578277888776	0.1536
H	0.842335019048	0.662923476822	0.931880467359	0.1536
H	0.685629796334	0.666375173509	0.568041548668	0.1536
H	0.863618254938	0.949194723759	0.710788914783	0.1536
H	0.877488947149	0.593360996927	0.8035821797	0.1536
H	0.651441832655	0.950990987897	0.820647677769	0.1536
H	0.642992901733	0.587087588259	0.677004979577	0.1536
H	0.954406192112	0.705153943278	0.618200161407	0.1536
H	0.573020609641	0.853121282961	0.609732649688	0.1536
H	0.568561244776	0.694871493607	0.887851710712	0.1536
H	0.94734197175	0.845787297201	0.87434955293	0.1536
H	0.62688428712	0.960272921217	0.686292806064	0.1536
H	0.628633580732	0.594849048207	0.804179760539	0.1536
H	0.902498043388	0.592992722749	0.67301585666	0.1536
H	0.896312478399	0.952444741694	0.813081096663	0.1536
H	0.69095705155	0.627457797855	0.936078471131	0.1536
H	0.830644579716	0.643634758739	0.570025334538	0.1536
H	0.697522050689	0.924352040872	0.54802588653	0.1536
H	0.845817268268	0.928332844227	0.967042692352	0.1536
H	0.691318438319	0.971802104544	0.597324376476	0.1536
H	0.840054920864	0.582414955715	0.60760660208	0.1536
H	0.685953238544	0.577838002593	0.893022581131	0.1536
H	0.846676025861	0.974532905136	0.913189116046	0.1536
H	0.950111342019	0.64635455935	0.683842191586	0.1536
H	0.575113081402	0.6354232849	0.801767617924	0.1536
H	0.576817047496	0.909646170537	0.688646575206	0.1536
H	0.941908903089	0.904461654864	0.806198836367	0.1536
H	0.622427598701	0.701629082366	0.933496366369	0.1536
H	0.628135797076	0.848718982742	0.563403016633	0.1536
H	0.899871717743	0.704011984682	0.571989091326	0.1536
H	0.891808783098	0.841568969286	0.925836924066	0.1536
H	0.738884031789	0.574118233992	0.794980140503	0.1481
H	0.765640708469	-0.00337703174121	0.794865542805	0.1481
H	0.785850616745	0.797860784034	0.97602632808	0.1481
H	0.720270594532	0.769695134438	0.958915995105	0.1481
H	0.982213022038	0.789817185878	0.795961597747	0.1481
H	0.566113919987	0.70668524662	0.761100352837	0.1481
H	0.572110099092	0.841724577136	0.719077054731	0.1481
H	0.990637859743	0.748236593519	0.735382869786	0.1481
H	0.693198195603	0.820157491335	0.557153986548	0.1481
H	0.784652671547	0.711625784381	0.559561048139	0.1481
H	0.819370369298	0.588514077176	0.671222038438	0.1481
H	0.727414103185	0.980666335241	0.723632922365	0.1481
H	0.572547540877	0.731759057266	0.530119539135	0.1481
H	0.553409505751	0.827806200498	0.905301084875	0.1481
H	0.561337487369	0.566798845382	0.67698801869	0.1481
H	0.950598622224	0.557622333614	0.803731020644	0.1481
H	0.830040546039	0.577502451009	0.921633125337	0.1481
H	0.709335141571	0.563373574309	0.566562851188	0.1481
H	0.835428914596	0.949234668116	0.57713061874	0.1481
H	0.714281228983	0.986595439779	0.929491171483	0.1481
H	0.543140376121	0.957964975725	0.808921561531	0.1481
H	0.973738534817	0.970007370674	0.68864170761	0.1481
H	0.996348093877	0.801350833213	0.524150152636	0.1481
H	0.985832175691	0.726638528939	0.938326655504	0.1481
H	0.706251298863	0.570711464876	0.760815333998	0.1481
H	0.794521842683	0.967803509069	0.829870135678	0.1481
H	0.823448477081	0.806948819493	0.947872814255	0.1481
H	0.730573283307	0.725948011272	0.940170659752	0.1481
H	0.988556314298	0.816026386482	0.758037875256	0.1481
H	0.557398079752	0.747300195384	0.778949181281	0.1481
H	0.556861293411	0.796285592954	0.714120415796	0.1481
H	0.976019212124	0.749602610151	0.694172812372	0.1481
H	0.739010490486	0.809996687665	0.542398081989	0.1481
H	0.825243950213	0.736258791807	0.574296299581	0.1481
H	0.782572046366	0.572046831768	0.695273354348	0.1481
H	0.682994414388	0.970187432157	0.717876136726	0.1481
H	0.53914948263	0.756144904933	0.511943854887	0.1481
H	0.59702661464	0.838060019241	0.91183954683	0.1481
H	0.523100793281	0.556583508355	0.700417736793	0.1481
H	0.990087736291	0.580171778183	0.796831204062	0.1481
H	0.806768885883	0.546358756023	0.946039594908	0.1481
H	0.725144919934	0.544879421464	0.529679955462	0.1481
H	0.826671609829	0.994174373235	0.576024279154	0.1481
H	0.705661677465	0.948179113709	0.954739969734	0.1481
H	0.551594619189	0.000996837297909	0.80586683018	0.1481
H	0.9349436221	0.00856701226805	0.69739793589	0.1481
H	0.953914830561	0.820072894855	0.522991481589	0.1481
H	0.992856869856	0.752588580358	0.976181519923	0.1481
H	0.746342371222	0.541902782831	0.761233868976	0.1481
H	0.811190803098	0.969840257013	0.78680222024	0.1481
H	0.791875952862	0.838389164638	0.953227004834	0.1481
H	0.759431854907	0.744494263675	0.968813161701	0.1481
H	0.961194939921	0.8255422424	0.794148317524	0.1481
H	0.577935075655	0.714826889961	0.80410542695	0.1481
H	0.575387300064	0.820618694379	0.679521521178	0.1481
H	0.968695667299	0.710789552946	0.718055162574	0.1481
H	0.726190156839	0.851630046136	0.563154810694	0.1481
H	0.794752067046	0.756298370806	0.545340177744	0.1481
H	0.821781312711	0.576746622293	0.71958118879	0.1481
H	0.717225643417	0.965438964754	0.684711066959	0.1481
H	0.535970311431	0.734878302377	0.55381742775	0.1481
H	0.572227663885	0.830212871558	0.948936329075	0.1481
H	0.554280194805	0.529290135415	0.702481993395	0.1481
H	0.983259989165	0.537788746413	0.77725759676	0.1481
H	0.814306938604	0.583111298991	0.966634774121	0.1481
H	0.712887867522	0.589335623624	0.53056540495	0.1481
H	0.82654450956	0.9702127968	0.536994273245	0.1481
H	0.719068191623	0.987455277169	0.974537744584	0.1481
H	0.520695055771	0.99336150774	0.78370412703	0.1481
H	0.978179438864	0.0046906376237	0.715302720654	0.1481
H	0.984196867453	0.827424903417	0.559204199981	0.1481
H	0.957316216908	0.726689953617	0.973318996605	0.1481
N	0.706826214341	0.00441830732708	0.851846709471	-0.28
N	0.811337445908	0.541543305058	0.835720960219	-0.28
N	0.788597732603	0.00354618703145	0.675249277167	-0.28
N	0.716384099072	0.539331662315	0.658973939304	-0.28
N	0.862198438398	0.734031257936	0.986579918029	-0.28
N	0.853672231635	0.812947448036	0.523223800999	-0.28
N	0.673731883332	0.826980348427	0.9849297019	-0.28
N	0.672507639352	0.741450444087	0.520922202412	-0.28
N	1.00171532729	0.863223672279	0.700226849418	-0.28
N	0.524761150947	0.864021311635	0.795295593434	-0.28
N	1.00078822195	0.684135762444	0.794843579515	-0.28
N	0.526471248715	0.681320534881	0.694718921251	-0.28
N	1.0039363689	0.728826637656	0.841223422052	-0.28
N	0.527422151391	0.811606741277	0.833309220633	-0.28
N	1.00180457401	0.811167103487	0.660083661857	-0.28
N	0.529356588812	0.729404162611	0.652914990267	-0.28
N	0.723660927364	0.869405045186	0.98998061276	-0.28
N	0.817164321317	0.865502178742	0.518433107839	-0.28
N	0.814505871106	0.69071643222	0.979254175429	-0.28
N	0.711194719699	0.689924124243	0.520089877163	-0.28
N	0.833225846073	0.00601534388235	0.721790322138	-0.28
N	0.860572165191	0.536996756362	0.793856812687	-0.28
N	0.663468835055	0.0048372329552	0.802692373789	-0.28
N	0.666810690841	0.535071728446	0.698160658361	-0.28
N	0.972633615662	0.756417846157	0.592308787845	-0.28
N	0.554500743377	0.799568407725	0.585782172317	-0.28
N	0.565147833309	0.755159859766	0.893652704896	-0.28
N	0.966850029132	0.791788368076	0.901258976868	-0.28
N	0.600207165423	0.980094477486	0.740177713946	-0.28
N	0.603810852317	0.566722653675	0.753815209022	-0.28
N	0.922032201818	0.569262627531	0.726207844622	-0.28
N	0.92220141173	0.982454893701	0.768456517718	-0.28
N	0.75054834481	0.618552477637	0.945000537582	-0.28
N	0.778424996079	0.61883913418	0.551510665769	-0.28
N	0.756072722318	0.933807111526	0.546167540566	-0.28
N	0.785715547823	0.938768815305	0.967041392249	-0.28
N	0.750398723465	0.979786482752	0.592394373811	-0.28
N	0.784775240837	0.565743842038	0.588996603046	-0.28
N	0.747172051002	0.566528122967	0.903400347656	-0.28
N	0.785058272765	0.981867285166	0.918394766638	-0.28
N	0.970714627986	0.614639896643	0.730388480685	-0.28
N	0.553411388074	0.609458963129	0.753523181079	-0.28
N	0.555047748077	0.935572630241	0.734670079553	-0.28
N	0.966403875881	0.934063052446	0.75839112202	-0.28
N	0.614545465669	0.760277454058	0.936287882578	-0.28
N	0.602748847739	0.799198966321	0.539771526394	-0.28
N	0.925710391238	0.754901448988	0.546705595106	-0.28
N	0.925699508852	0.798459547567	0.951187916756	-0.28
Zn	0.753664146529	0.0267558320291	0.886049800394	0.68940001
Zn	0.762083565778	0.52955173453	0.625879180079	0.68940001
Zn	0.891659808795	0.77541014663	0.506995197187	0.68940001
Zn	0.638141721933	0.778134894844	0.990769155362	0.68940001
Zn	1.01430990928	0.899177280545	0.742339256719	0.68940001
Zn	0.509105341781	0.64413921676	0.736810725793	0.68940001
Zn	0.513821095384	0.764221386199	0.865580631458	0.68940001
Zn	0.515228529404	0.775442390508	0.623290664608	0.68940001
Zn	0.77184589569	0.901539356451	0.50051617099	0.68940001
Zn	0.769561599155	0.649596728726	0.993942004406	0.68940001
Zn	0.887021574684	0.526457104645	0.740532534267	0.68940001
Zn	0.636942059357	0.521748055754	0.744504299825	0.68940001
